data_C:\Users\admin\Documents\atomsegmentation_bupt_fullsuite_3\misc\00206.cif
_cell_length_a               7.913200
_cell_length_b               7.913200
_cell_length_c               5.449400
_cell_angle_alpha          90.000000
_cell_angle_beta           90.000000
_cell_angle_gamma          90.000000
_symmetry_cell_setting          Triclinic
_symmetry_space_group_name_H-M 'P 1' 
loop_
_atom_site_label
_atom_site_fract_x
_atom_site_fract_y
_atom_site_fract_z
Sc1	 0.786000	 0.327623	 0.000000 
Sc2	 0.692354	 0.677114	 0.500000 
Sc3	 0.303037	 0.198213	 0.000000 
Sc4	 0.209391	 0.547704	 0.500000 
Dy5	 0.922467	 0.784247	 0.017200 
Dy6	 0.555887	 0.220490	 0.517200 
Dy7	 0.462241	 0.569981	 0.982800 
#                 ---end-of-data-block---
