data_C:\Users\admin\Documents\atomsegmentation_bupt_fullsuite_3\misc\00204.cif
_cell_length_a               7.913200
_cell_length_b               7.913200
_cell_length_c               5.449400
_cell_angle_alpha          90.000000
_cell_angle_beta           90.000000
_cell_angle_gamma          90.000000
_symmetry_cell_setting          Triclinic
_symmetry_space_group_name_H-M 'P 1' 
loop_
_atom_site_label
_atom_site_fract_x
_atom_site_fract_y
_atom_site_fract_z
Sc1	 0.647728	 0.900718	 0.000000 
Sc2	 0.741374	 0.551227	 0.500000 
Sc3	 0.164765	 0.771308	 0.000000 
Sc4	 0.258411	 0.421817	 0.500000 
Dy5	 0.971487	 0.658360	 0.017200 
Dy6	 0.417615	 0.793585	 0.517200 
Dy7	 0.511261	 0.444094	 0.982800 
#                 ---end-of-data-block---
