data_C:\Users\admin\Documents\atomsegmentation_bupt_fullsuite_3\misc\00211.cif
_cell_length_a               7.913200
_cell_length_b               7.913200
_cell_length_c               5.449400
_cell_angle_alpha          90.000000
_cell_angle_beta           90.000000
_cell_angle_gamma          90.000000
_symmetry_cell_setting          Triclinic
_symmetry_space_group_name_H-M 'P 1' 
loop_
_atom_site_label
_atom_site_fract_x
_atom_site_fract_y
_atom_site_fract_z
Sc1	 0.156095	 0.541998	 0.000000 
Sc2	 0.337004	 0.228653	 0.500000 
Sc3	 0.589107	 0.791998	 0.000000 
Sc4	 0.770017	 0.478653	 0.500000 
Dy5	 0.531548	 0.391693	 0.017200 
Dy6	 0.827576	 0.878958	 0.517200 
Dy7	 0.350638	 0.705038	 0.482800 
#                 ---end-of-data-block---
