data_C:\Users\admin\Documents\atomsegmentation_bupt_fullsuite_3\misc\00224.cif
_cell_length_a               7.913200
_cell_length_b               7.913200
_cell_length_c               5.449400
_cell_angle_alpha          90.000000
_cell_angle_beta           90.000000
_cell_angle_gamma          90.000000
_symmetry_cell_setting          Triclinic
_symmetry_space_group_name_H-M 'P 1' 
loop_
_atom_site_label
_atom_site_fract_x
_atom_site_fract_y
_atom_site_fract_z
Sc1	 0.602091	 0.146218	 0.000000 
Sc2	 0.346245	 0.402063	 0.500000 
Sc3	 0.955644	 0.499772	 0.000000 
Sc4	 0.699799	 0.755617	 0.500000 
Dy5	 0.491963	 0.609900	 0.017200 
Dy6	 0.200528	 0.194227	 0.982800 
Dy7	 0.747808	 0.354055	 0.482800 
#                 ---end-of-data-block---
