data_C:\Users\admin\Documents\atomsegmentation_bupt_fullsuite_3\misc\00232.cif
_cell_length_a               7.913200
_cell_length_b               7.913200
_cell_length_c               5.449400
_cell_angle_alpha          90.000000
_cell_angle_beta           90.000000
_cell_angle_gamma          90.000000
_symmetry_cell_setting          Triclinic
_symmetry_space_group_name_H-M 'P 1' 
loop_
_atom_site_label
_atom_site_fract_x
_atom_site_fract_y
_atom_site_fract_z
Sc1	 0.390253	 0.773299	 0.000000 
Sc2	 0.703598	 0.592389	 0.500000 
Sc3	 0.140253	 0.340286	 0.000000 
Sc4	 0.453598	 0.159376	 0.500000 
Dy5	 0.790558	 0.830858	 0.017200 
Dy6	 0.303293	 0.534830	 0.517200 
Dy7	 0.616638	 0.353920	 0.982800 
#                 ---end-of-data-block---
