data_C:\Users\admin\Documents\atomsegmentation_bupt_fullsuite_3\misc\00241.cif
_cell_length_a               7.913200
_cell_length_b               7.913200
_cell_length_c               5.449400
_cell_angle_alpha          90.000000
_cell_angle_beta           90.000000
_cell_angle_gamma          90.000000
_symmetry_cell_setting          Triclinic
_symmetry_space_group_name_H-M 'P 1' 
loop_
_atom_site_label
_atom_site_fract_x
_atom_site_fract_y
_atom_site_fract_z
Sc1	 0.163582	 0.085129	 0.000000 
Sc2	 0.292991	 0.568092	 0.000000 
Sc3	 0.642482	 0.474446	 0.500000 
Dy4	 0.535349	 0.244333	 0.017200 
Dy5	 0.400124	 0.798205	 0.517200 
Dy6	 0.749615	 0.704559	 0.982800 
Dy7	 0.185859	 0.337979	 0.482800 
#                 ---end-of-data-block---
