data_C:\Users\admin\Documents\atomsegmentation_bupt_fullsuite_3\misc\00240.cif
_cell_length_a               7.913200
_cell_length_b               7.913200
_cell_length_c               5.449400
_cell_angle_alpha          90.000000
_cell_angle_beta           90.000000
_cell_angle_gamma          90.000000
_symmetry_cell_setting          Triclinic
_symmetry_space_group_name_H-M 'P 1' 
loop_
_atom_site_label
_atom_site_fract_x
_atom_site_fract_y
_atom_site_fract_z
Sc1	 0.350479	 0.787371	 0.000000 
Sc2	 0.699970	 0.693725	 0.500000 
Sc3	 0.221069	 0.304408	 0.000000 
Sc4	 0.570560	 0.210762	 0.500000 
Dy5	 0.722246	 0.946575	 0.017200 
Dy6	 0.328202	 0.534521	 0.517200 
Dy7	 0.677693	 0.440875	 0.982800 
#                 ---end-of-data-block---
