data_TiO2_rutile [001] nx 2 ny 2 nz 1
_cell_length_a               9.188000
_cell_length_b               9.188000
_cell_length_c               2.959000
_cell_angle_alpha          90.000000
_cell_angle_beta           90.000000
_cell_angle_gamma          90.000000
_symmetry_cell_setting          Triclinic
_symmetry_space_group_name_H-M 'P 1' 
loop_
_atom_site_label
_atom_site_fract_x
_atom_site_fract_y
_atom_site_fract_z
Ti1	 0.664020	 0.198048	 0.000000 
Ti2	 0.755526	 0.539554	 0.500000 
Ti3	 0.414020	 0.631060	 0.000000 
Ti4	 0.505526	 0.972567	 0.500000 
Ti5	 0.322514	 0.289554	 0.500000 
Ti6	 0.847033	 0.881060	 0.000000 
Ti7	 0.072514	 0.722567	 0.500000 
#                 ---end-of-data-block---
