data_TiO2_rutile [001] nx 2 ny 2 nz 1
_cell_length_a               9.188000
_cell_length_b               9.188000
_cell_length_c               2.959000
_cell_angle_alpha          90.000000
_cell_angle_beta           90.000000
_cell_angle_gamma          90.000000
_symmetry_cell_setting          Triclinic
_symmetry_space_group_name_H-M 'P 1' 
loop_
_atom_site_label
_atom_site_fract_x
_atom_site_fract_y
_atom_site_fract_z
Ti1	 0.492467	 0.282929	 0.000000 
Ti2	 0.583973	 0.624435	 0.500000 
Ti3	 0.242467	 0.715942	 0.000000 
Ti4	 0.833973	 0.191423	 0.500000 
Ti5	 0.925480	 0.532929	 0.000000 
Ti6	 0.150961	 0.374435	 0.500000 
Ti7	 0.675480	 0.965942	 0.000000 
#                 ---end-of-data-block---
