data_TiO2_rutile [001] nx 2 ny 2 nz 1
_cell_length_a               9.188000
_cell_length_b               9.188000
_cell_length_c               2.959000
_cell_angle_alpha          90.000000
_cell_angle_beta           90.000000
_cell_angle_gamma          90.000000
_symmetry_cell_setting          Triclinic
_symmetry_space_group_name_H-M 'P 1' 
loop_
_atom_site_label
_atom_site_fract_x
_atom_site_fract_y
_atom_site_fract_z
Ti1	 0.353006	 0.020151	 0.000000 
Ti2	 0.529783	 0.326337	 0.500000 
Ti3	 0.223597	 0.503114	 0.000000 
Ti4	 0.400373	 0.809300	 0.500000 
Ti5	 0.835969	 0.149560	 0.000000 
Ti6	 0.706560	 0.632523	 0.000000 
Ti7	 0.883336	 0.938709	 0.500000 
#                 ---end-of-data-block---
