data_TiO2_rutile [001] nx 2 ny 2 nz 1
_cell_length_a               9.188000
_cell_length_b               9.188000
_cell_length_c               2.959000
_cell_angle_alpha          90.000000
_cell_angle_beta           90.000000
_cell_angle_gamma          90.000000
_symmetry_cell_setting          Triclinic
_symmetry_space_group_name_H-M 'P 1' 
loop_
_atom_site_label
_atom_site_fract_x
_atom_site_fract_y
_atom_site_fract_z
Ti1	 0.909564	 0.300568	 0.000000 
Ti2	 0.732787	 0.606754	 0.500000 
Ti3	 0.426601	 0.429978	 0.000000 
Ti4	 0.249824	 0.736164	 0.500000 
Ti5	 0.603378	 0.123791	 0.500000 
Ti6	 0.556011	 0.912941	 0.000000 
Ti7	 0.120415	 0.253201	 0.500000 
#                 ---end-of-data-block---
