data_TiO2_rutile [001] nx 2 ny 2 nz 1
_cell_length_a               9.188000
_cell_length_b               9.188000
_cell_length_c               2.959000
_cell_angle_alpha          90.000000
_cell_angle_beta           90.000000
_cell_angle_gamma          90.000000
_symmetry_cell_setting          Triclinic
_symmetry_space_group_name_H-M 'P 1' 
loop_
_atom_site_label
_atom_site_fract_x
_atom_site_fract_y
_atom_site_fract_z
Ti1	 0.813889	 0.392807	 0.000000 
Ti2	 0.637112	 0.698993	 0.500000 
Ti3	 0.330926	 0.522216	 0.000000 
Ti4	 0.154149	 0.828402	 0.500000 
Ti5	 0.943298	 0.875770	 0.000000 
Ti6	 0.507702	 0.216030	 0.500000 
Ti7	 0.024739	 0.345439	 0.500000 
#                 ---end-of-data-block---
