data_TiO2_rutile [001] nx 2 ny 2 nz 1
_cell_length_a               9.188000
_cell_length_b               9.188000
_cell_length_c               2.959000
_cell_angle_alpha          90.000000
_cell_angle_beta           90.000000
_cell_angle_gamma          90.000000
_symmetry_cell_setting          Triclinic
_symmetry_space_group_name_H-M 'P 1' 
loop_
_atom_site_label
_atom_site_fract_x
_atom_site_fract_y
_atom_site_fract_z
Ti1	 0.856155	 0.136473	 0.000000 
Ti2	 0.679379	 0.442660	 0.500000 
Ti3	 0.373192	 0.265883	 0.000000 
Ti4	 0.196416	 0.572069	 0.500000 
Ti5	 0.985565	 0.619436	 0.000000 
Ti6	 0.808788	 0.925622	 0.500000 
Ti7	 0.502602	 0.748846	 0.000000 
#                 ---end-of-data-block---
