data_TiO2_rutile [001] nx 2 ny 2 nz 1
_cell_length_a               9.188000
_cell_length_b               9.188000
_cell_length_c               2.959000
_cell_angle_alpha          90.000000
_cell_angle_beta           90.000000
_cell_angle_gamma          90.000000
_symmetry_cell_setting          Triclinic
_symmetry_space_group_name_H-M 'P 1' 
loop_
_atom_site_label
_atom_site_fract_x
_atom_site_fract_y
_atom_site_fract_z
Ti1	 0.785091	 0.396660	 0.000000 
Ti2	 0.608315	 0.702846	 0.500000 
Ti3	 0.302129	 0.526070	 0.000000 
Ti4	 0.125352	 0.832256	 0.500000 
Ti5	 0.914501	 0.879623	 0.000000 
Ti6	 0.478905	 0.219883	 0.500000 
#                 ---end-of-data-block---
