data_TiO2_rutile [001] nx 2 ny 2 nz 1
_cell_length_a               9.188000
_cell_length_b               9.188000
_cell_length_c               2.959000
_cell_angle_alpha          90.000000
_cell_angle_beta           90.000000
_cell_angle_gamma          90.000000
_symmetry_cell_setting          Triclinic
_symmetry_space_group_name_H-M 'P 1' 
loop_
_atom_site_label
_atom_site_fract_x
_atom_site_fract_y
_atom_site_fract_z
Ti1	 0.423115	 0.187276	 0.000000 
Ti2	 0.246339	 0.493462	 0.500000 
Ti3	 0.729302	 0.364053	 0.500000 
Ti4	 0.552525	 0.670239	 0.000000 
Ti5	 0.375748	 0.976425	 0.500000 
Ti6	 0.069562	 0.799649	 0.000000 
Ti7	 0.858711	 0.847016	 0.500000 
#                 ---end-of-data-block---
