data_Si [110] nx 2 ny 1 nz 1
_cell_length_a               7.679180
_cell_length_b               7.679180
_cell_length_c               3.839590
_cell_angle_alpha          90.000000
_cell_angle_beta           90.000000
_cell_angle_gamma          90.000000
_symmetry_cell_setting          Triclinic
_symmetry_space_group_name_H-M 'P 1' 
loop_
_atom_site_label
_atom_site_fract_x
_atom_site_fract_y
_atom_site_fract_z
Si1	 0.241326	 0.267044	 0.000000 
Si2	 0.543103	 0.318821	 0.000000 
Si3	 0.116326	 0.392044	 0.500000 
Si4	 0.668103	 0.193821	 0.500000 
Si5	 0.594880	 0.620597	 0.000000 
Si6	 0.896656	 0.672374	 0.000000 
Si7	 0.469880	 0.745597	 0.500000 
#                 ---end-of-data-block---
