data_Si [110] nx 2 ny 1 nz 1
_cell_length_a               7.679180
_cell_length_b               7.679180
_cell_length_c               3.839590
_cell_angle_alpha          90.000000
_cell_angle_beta           90.000000
_cell_angle_gamma          90.000000
_symmetry_cell_setting          Triclinic
_symmetry_space_group_name_H-M 'P 1' 
loop_
_atom_site_label
_atom_site_fract_x
_atom_site_fract_y
_atom_site_fract_z
Si1	 0.669731	 0.173318	 0.000000 
Si2	 0.471507	 0.725095	 0.000000 
Si3	 0.544731	 0.298318	 0.500000 
Si4	 0.596507	 0.600095	 0.500000 
Si5	 0.117954	 0.371541	 0.000000 
Si6	 0.898284	 0.651872	 0.500000 
Si7	 0.242954	 0.246541	 0.500000 
#                 ---end-of-data-block---
