data_Si [110] nx 2 ny 1 nz 1
_cell_length_a               7.679180
_cell_length_b               7.679180
_cell_length_c               3.839590
_cell_angle_alpha          90.000000
_cell_angle_beta           90.000000
_cell_angle_gamma          90.000000
_symmetry_cell_setting          Triclinic
_symmetry_space_group_name_H-M 'P 1' 
loop_
_atom_site_label
_atom_site_fract_x
_atom_site_fract_y
_atom_site_fract_z
Si1	 0.485716	 0.159365	 0.000000 
Si2	 0.763809	 0.287483	 0.000000 
Si3	 0.332623	 0.247753	 0.500000 
Si4	 0.304530	 0.552648	 0.500000 
Si5	 0.735716	 0.592377	 0.000000 
Si6	 0.582623	 0.680766	 0.500000 
Si7	 0.554530	 0.985660	 0.500000 
#                 ---end-of-data-block---
