data_Si [110] nx 2 ny 1 nz 1
_cell_length_a               7.679180
_cell_length_b               7.679180
_cell_length_c               3.839590
_cell_angle_alpha          90.000000
_cell_angle_beta           90.000000
_cell_angle_gamma          90.000000
_symmetry_cell_setting          Triclinic
_symmetry_space_group_name_H-M 'P 1' 
loop_
_atom_site_label
_atom_site_fract_x
_atom_site_fract_y
_atom_site_fract_z
Si1	 0.442272	 0.232322	 0.000000 
Si2	 0.720366	 0.360440	 0.000000 
Si3	 0.289179	 0.320711	 0.500000 
Si4	 0.261086	 0.625605	 0.500000 
Si5	 0.692272	 0.665335	 0.000000 
Si6	 0.970366	 0.793453	 0.000000 
Si7	 0.539179	 0.753723	 0.500000 
#                 ---end-of-data-block---
