data_Si [110] nx 2 ny 1 nz 1
_cell_length_a               7.679180
_cell_length_b               7.679180
_cell_length_c               3.839590
_cell_angle_alpha          90.000000
_cell_angle_beta           90.000000
_cell_angle_gamma          90.000000
_symmetry_cell_setting          Triclinic
_symmetry_space_group_name_H-M 'P 1' 
loop_
_atom_site_label
_atom_site_fract_x
_atom_site_fract_y
_atom_site_fract_z
Si1	 0.226695	 0.461279	 0.000000 
Si2	 0.407881	 0.067996	 0.500000 
Si3	 0.379788	 0.372890	 0.500000 
Si4	 0.810974	 0.412620	 0.000000 
Si5	 0.476695	 0.894291	 0.000000 
Si6	 0.657881	 0.501008	 0.500000 
Si7	 0.629788	 0.805903	 0.500000 
#                 ---end-of-data-block---
