data_Si [110] nx 2 ny 1 nz 1
_cell_length_a               7.679180
_cell_length_b               7.679180
_cell_length_c               3.839590
_cell_angle_alpha          90.000000
_cell_angle_beta           90.000000
_cell_angle_gamma          90.000000
_symmetry_cell_setting          Triclinic
_symmetry_space_group_name_H-M 'P 1' 
loop_
_atom_site_label
_atom_site_fract_x
_atom_site_fract_y
_atom_site_fract_z
Si1	 0.115420	 0.462933	 0.000000 
Si2	 0.296606	 0.069650	 0.500000 
Si3	 0.268513	 0.374545	 0.500000 
Si4	 0.699699	 0.414274	 0.000000 
Si5	 0.365420	 0.895946	 0.000000 
Si6	 0.546606	 0.502663	 0.500000 
Si7	 0.518513	 0.807557	 0.500000 
#                 ---end-of-data-block---
