data_STO [001]2x2x1
_cell_length_a               7.810000
_cell_length_b               7.810000
_cell_length_c               3.905000
_cell_angle_alpha          90.000000
_cell_angle_beta           90.000000
_cell_angle_gamma          90.000000
_symmetry_cell_setting          Triclinic
_symmetry_space_group_name_H-M 'P 1' 
loop_
_atom_site_label
_atom_site_fract_x
_atom_site_fract_y
_atom_site_fract_z
Sr1	 0.556173	 0.136695	 0.000000 
Ti2	 0.732949	 0.442881	 0.500000 
Sr3	 0.426763	 0.619658	 0.000000 
Ti4	 0.603540	 0.925844	 0.500000 
Ti5	 0.249986	 0.313472	 0.500000 
Sr6	 0.909726	 0.749067	 0.000000 
Ti7	 0.120577	 0.796434	 0.500000 
#                 ---end-of-data-block---
