data_STO [001]2x2x1
_cell_length_a               7.810000
_cell_length_b               7.810000
_cell_length_c               3.905000
_cell_angle_alpha          90.000000
_cell_angle_beta           90.000000
_cell_angle_gamma          90.000000
_symmetry_cell_setting          Triclinic
_symmetry_space_group_name_H-M 'P 1' 
loop_
_atom_site_label
_atom_site_fract_x
_atom_site_fract_y
_atom_site_fract_z
Sr1	 0.728823	 0.078169	 0.000000 
Ti2	 0.820329	 0.419675	 0.500000 
Sr3	 0.478823	 0.511181	 0.000000 
Ti4	 0.570329	 0.852688	 0.500000 
Ti5	 0.387317	 0.169675	 0.500000 
Sr6	 0.911836	 0.761181	 0.000000 
Ti7	 0.137317	 0.602688	 0.500000 
#                 ---end-of-data-block---
