data_STO [001]2x2x1
_cell_length_a               7.810000
_cell_length_b               7.810000
_cell_length_c               3.905000
_cell_angle_alpha          90.000000
_cell_angle_beta           90.000000
_cell_angle_gamma          90.000000
_symmetry_cell_setting          Triclinic
_symmetry_space_group_name_H-M 'P 1' 
loop_
_atom_site_label
_atom_site_fract_x
_atom_site_fract_y
_atom_site_fract_z
Sr1	 0.564852	 0.175747	 0.000000 
Ti2	 0.741628	 0.481934	 0.500000 
Sr3	 0.435442	 0.658710	 0.000000 
Ti4	 0.612219	 0.964896	 0.500000 
Ti5	 0.258665	 0.352524	 0.500000 
Sr6	 0.918405	 0.788120	 0.000000 
Ti7	 0.129256	 0.835487	 0.500000 
#                 ---end-of-data-block---
