data_STO [001]2x2x1
_cell_length_a               7.810000
_cell_length_b               7.810000
_cell_length_c               3.905000
_cell_angle_alpha          90.000000
_cell_angle_beta           90.000000
_cell_angle_gamma          90.000000
_symmetry_cell_setting          Triclinic
_symmetry_space_group_name_H-M 'P 1' 
loop_
_atom_site_label
_atom_site_fract_x
_atom_site_fract_y
_atom_site_fract_z
Sr1	 0.393667	 0.024290	 0.000000 
Ti2	 0.570444	 0.330476	 0.500000 
Sr3	 0.264258	 0.507253	 0.000000 
Ti4	 0.441035	 0.813439	 0.500000 
Sr5	 0.876630	 0.153700	 0.000000 
Ti6	 0.087481	 0.201067	 0.500000 
Sr7	 0.747221	 0.636663	 0.000000 
#                 ---end-of-data-block---
