data_STO [001]2x2x1
_cell_length_a               7.810000
_cell_length_b               7.810000
_cell_length_c               3.905000
_cell_angle_alpha          90.000000
_cell_angle_beta           90.000000
_cell_angle_gamma          90.000000
_symmetry_cell_setting          Triclinic
_symmetry_space_group_name_H-M 'P 1' 
loop_
_atom_site_label
_atom_site_fract_x
_atom_site_fract_y
_atom_site_fract_z
Sr1	 0.664264	 0.142494	 0.000000 
Ti2	 0.755770	 0.484000	 0.500000 
Sr3	 0.414264	 0.575506	 0.000000 
Ti4	 0.505770	 0.917013	 0.500000 
Ti5	 0.322757	 0.234000	 0.500000 
Sr6	 0.847276	 0.825506	 0.000000 
Ti7	 0.072757	 0.667013	 0.500000 
#                 ---end-of-data-block---
