data_STO [001]2x2x1
_cell_length_a               7.810000
_cell_length_b               7.810000
_cell_length_c               3.905000
_cell_angle_alpha          90.000000
_cell_angle_beta           90.000000
_cell_angle_gamma          90.000000
_symmetry_cell_setting          Triclinic
_symmetry_space_group_name_H-M 'P 1' 
loop_
_atom_site_label
_atom_site_fract_x
_atom_site_fract_y
_atom_site_fract_z
Ti1	 0.467344	 0.253096	 0.500000 
Sr2	 0.113790	 0.253096	 0.000000 
Ti3	 0.113790	 0.606649	 0.500000 
Sr4	 0.820897	 0.253096	 0.000000 
Ti5	 0.820897	 0.606649	 0.500000 
Sr6	 0.467344	 0.606649	 0.000000 
Ti7	 0.467344	 0.960203	 0.500000 
#                 ---end-of-data-block---
