data_STO [001]2x2x1
_cell_length_a               7.810000
_cell_length_b               7.810000
_cell_length_c               3.905000
_cell_angle_alpha          90.000000
_cell_angle_beta           90.000000
_cell_angle_gamma          90.000000
_symmetry_cell_setting          Triclinic
_symmetry_space_group_name_H-M 'P 1' 
loop_
_atom_site_label
_atom_site_fract_x
_atom_site_fract_y
_atom_site_fract_z
Sr1	 0.263023	 0.067854	 0.000000 
Ti2	 0.354529	 0.409360	 0.500000 
Sr3	 0.013023	 0.500867	 0.000000 
Ti4	 0.104529	 0.842373	 0.500000 
Sr5	 0.696035	 0.317854	 0.000000 
Ti6	 0.787542	 0.659360	 0.500000 
Sr7	 0.446035	 0.750867	 0.000000 
#                 ---end-of-data-block---
