data_STO [001]2x2x1
_cell_length_a               7.810000
_cell_length_b               7.810000
_cell_length_c               3.905000
_cell_angle_alpha          90.000000
_cell_angle_beta           90.000000
_cell_angle_gamma          90.000000
_symmetry_cell_setting          Triclinic
_symmetry_space_group_name_H-M 'P 1' 
loop_
_atom_site_label
_atom_site_fract_x
_atom_site_fract_y
_atom_site_fract_z
Sr1	 0.885769	 0.221505	 0.000000 
Ti2	 0.794263	 0.563011	 0.500000 
Sr3	 0.452757	 0.471505	 0.000000 
Ti4	 0.361250	 0.813011	 0.500000 
Ti5	 0.544263	 0.129998	 0.500000 
Sr6	 0.702757	 0.904517	 0.000000 
Ti7	 0.111250	 0.379998	 0.500000 
#                 ---end-of-data-block---
