data_STO [001]2x2x1
_cell_length_a               7.810000
_cell_length_b               7.810000
_cell_length_c               3.905000
_cell_angle_alpha          90.000000
_cell_angle_beta           90.000000
_cell_angle_gamma          90.000000
_symmetry_cell_setting          Triclinic
_symmetry_space_group_name_H-M 'P 1' 
loop_
_atom_site_label
_atom_site_fract_x
_atom_site_fract_y
_atom_site_fract_z
Sr1	 0.778716	 0.050512	 0.000000 
Ti2	 0.687210	 0.392018	 0.500000 
Sr3	 0.345704	 0.300512	 0.000000 
Ti4	 0.254197	 0.642018	 0.500000 
Sr5	 0.595704	 0.733525	 0.000000 
Ti6	 0.004197	 0.209006	 0.500000 
#                 ---end-of-data-block---
