data_STO [001]2x2x1
_cell_length_a               7.810000
_cell_length_b               7.810000
_cell_length_c               3.905000
_cell_angle_alpha          90.000000
_cell_angle_beta           90.000000
_cell_angle_gamma          90.000000
_symmetry_cell_setting          Triclinic
_symmetry_space_group_name_H-M 'P 1' 
loop_
_atom_site_label
_atom_site_fract_x
_atom_site_fract_y
_atom_site_fract_z
Ti1	 0.641618	 0.257553	 0.500000 
Sr2	 0.300111	 0.166047	 0.000000 
Ti3	 0.208605	 0.507553	 0.500000 
Sr4	 0.983124	 0.349059	 0.000000 
Ti5	 0.891618	 0.690566	 0.500000 
Sr6	 0.550111	 0.599059	 0.000000 
Ti7	 0.458605	 0.940566	 0.500000 
#                 ---end-of-data-block---
