data_STO [001]2x2x1
_cell_length_a               7.810000
_cell_length_b               7.810000
_cell_length_c               3.905000
_cell_angle_alpha          90.000000
_cell_angle_beta           90.000000
_cell_angle_gamma          90.000000
_symmetry_cell_setting          Triclinic
_symmetry_space_group_name_H-M 'P 1' 
loop_
_atom_site_label
_atom_site_fract_x
_atom_site_fract_y
_atom_site_fract_z
Ti1	 0.562617	 0.290875	 0.500000 
Sr2	 0.221111	 0.199369	 0.000000 
Ti3	 0.129605	 0.540875	 0.500000 
Sr4	 0.904124	 0.382382	 0.000000 
Ti5	 0.812617	 0.723888	 0.500000 
Sr6	 0.471111	 0.632382	 0.000000 
Ti7	 0.379605	 0.973888	 0.500000 
#                 ---end-of-data-block---
