data_STO [001]2x2x1
_cell_length_a               7.810000
_cell_length_b               7.810000
_cell_length_c               3.905000
_cell_angle_alpha          90.000000
_cell_angle_beta           90.000000
_cell_angle_gamma          90.000000
_symmetry_cell_setting          Triclinic
_symmetry_space_group_name_H-M 'P 1' 
loop_
_atom_site_label
_atom_site_fract_x
_atom_site_fract_y
_atom_site_fract_z
Sr1	 0.497024	 0.435371	 0.000000 
Ti2	 0.320247	 0.741557	 0.500000 
Sr3	 0.014061	 0.564780	 0.000000 
Ti4	 0.803210	 0.612148	 0.500000 
Sr5	 0.626434	 0.918334	 0.000000 
Ti6	 0.190838	 0.258594	 0.500000 
Ti7	 0.673801	 0.129185	 0.500000 
#                 ---end-of-data-block---
