data_Pt structure along [001] nx 1 ny 2 nz 1
_cell_length_a               7.810000
_cell_length_b               7.810000
_cell_length_c               5.543717
_cell_angle_alpha          90.000000
_cell_angle_beta           90.000000
_cell_angle_gamma          90.000000
_symmetry_cell_setting          Triclinic
_symmetry_space_group_name_H-M 'P 1' 
loop_
_atom_site_label
_atom_site_fract_x
_atom_site_fract_y
_atom_site_fract_z
Ti1	 0.367038	 0.225925	 0.000000 
Sr2	 0.773249	 0.075950	 0.000000 
Ti3	 0.708544	 0.317431	 0.500000 
Ti4	 0.237628	 0.708888	 0.000000 
Sr5	 0.643839	 0.558913	 0.000000 
Ti6	 0.579135	 0.800394	 0.500000 
Sr7	 0.302333	 0.467407	 0.500000 
#                 ---end-of-data-block---
