data_Pt structure along [001] nx 1 ny 2 nz 1
_cell_length_a               7.810000
_cell_length_b               7.810000
_cell_length_c               5.543717
_cell_angle_alpha          90.000000
_cell_angle_beta           90.000000
_cell_angle_gamma          90.000000
_symmetry_cell_setting          Triclinic
_symmetry_space_group_name_H-M 'P 1' 
loop_
_atom_site_label
_atom_site_fract_x
_atom_site_fract_y
_atom_site_fract_z
Ti1	 0.397268	 0.194360	 0.000000 
Sr2	 0.828454	 0.154630	 0.000000 
Ti3	 0.703454	 0.371137	 0.500000 
Ti4	 0.147268	 0.627373	 0.000000 
Sr5	 0.578454	 0.587643	 0.000000 
Ti6	 0.453454	 0.804150	 0.500000 
Sr7	 0.272268	 0.410866	 0.500000 
#                 ---end-of-data-block---
