data_Pt structure along [001] nx 1 ny 2 nz 1
_cell_length_a               7.810000
_cell_length_b               7.810000
_cell_length_c               5.543717
_cell_angle_alpha          90.000000
_cell_angle_beta           90.000000
_cell_angle_gamma          90.000000
_symmetry_cell_setting          Triclinic
_symmetry_space_group_name_H-M 'P 1' 
loop_
_atom_site_label
_atom_site_fract_x
_atom_site_fract_y
_atom_site_fract_z
Ti1	 0.765848	 0.661022	 0.000000 
Sr2	 0.692624	 0.234246	 0.000000 
Ti3	 0.515848	 0.411022	 0.500000 
Sr4	 0.942624	 0.484246	 0.500000 
Sr5	 0.339071	 0.587799	 0.000000 
Ti6	 0.162294	 0.764576	 0.500000 
Sr7	 0.589071	 0.837799	 0.500000 
#                 ---end-of-data-block---
