data_Pt structure along [001] nx 1 ny 2 nz 1
_cell_length_a               7.810000
_cell_length_b               7.810000
_cell_length_c               5.543717
_cell_angle_alpha          90.000000
_cell_angle_beta           90.000000
_cell_angle_gamma          90.000000
_symmetry_cell_setting          Triclinic
_symmetry_space_group_name_H-M 'P 1' 
loop_
_atom_site_label
_atom_site_fract_x
_atom_site_fract_y
_atom_site_fract_z
Ti1	 0.344793	 0.716947	 0.000000 
Sr2	 0.384523	 0.285761	 0.000000 
Ti3	 0.168016	 0.410761	 0.500000 
Sr4	 0.561300	 0.591947	 0.500000 
Ti5	 0.777806	 0.466947	 0.000000 
Ti6	 0.601029	 0.160761	 0.500000 
Sr7	 0.128287	 0.841947	 0.500000 
#                 ---end-of-data-block---
