data_Pt structure along [001] nx 1 ny 2 nz 1
_cell_length_a               7.810000
_cell_length_b               7.810000
_cell_length_c               5.543717
_cell_angle_alpha          90.000000
_cell_angle_beta           90.000000
_cell_angle_gamma          90.000000
_symmetry_cell_setting          Triclinic
_symmetry_space_group_name_H-M 'P 1' 
loop_
_atom_site_label
_atom_site_fract_x
_atom_site_fract_y
_atom_site_fract_z
Ti1	 0.353981	 0.233579	 0.000000 
Sr2	 0.747264	 0.414765	 0.000000 
Ti3	 0.530758	 0.539765	 0.500000 
Sr4	 0.570487	 0.108579	 0.500000 
Sr5	 0.314251	 0.664765	 0.000000 
Ti6	 0.097745	 0.789765	 0.500000 
Sr7	 0.137475	 0.358579	 0.500000 
#                 ---end-of-data-block---
