data_Pt structure along [001] nx 1 ny 2 nz 1
_cell_length_a               7.810000
_cell_length_b               7.810000
_cell_length_c               5.543717
_cell_angle_alpha          90.000000
_cell_angle_beta           90.000000
_cell_angle_gamma          90.000000
_symmetry_cell_setting          Triclinic
_symmetry_space_group_name_H-M 'P 1' 
loop_
_atom_site_label
_atom_site_fract_x
_atom_site_fract_y
_atom_site_fract_z
Ti1	 0.593848	 0.587518	 0.000000 
Sr2	 0.633578	 0.156332	 0.000000 
Ti3	 0.417071	 0.281332	 0.500000 
Sr4	 0.810354	 0.462518	 0.500000 
Ti5	 0.160835	 0.837518	 0.000000 
Sr6	 0.200565	 0.406332	 0.000000 
Sr7	 0.377342	 0.712518	 0.500000 
#                 ---end-of-data-block---
