data_Pt structure along [001] nx 1 ny 2 nz 1
_cell_length_a               7.810000
_cell_length_b               7.810000
_cell_length_c               5.543717
_cell_angle_alpha          90.000000
_cell_angle_beta           90.000000
_cell_angle_gamma          90.000000
_symmetry_cell_setting          Triclinic
_symmetry_space_group_name_H-M 'P 1' 
loop_
_atom_site_label
_atom_site_fract_x
_atom_site_fract_y
_atom_site_fract_z
Ti1	 0.207872	 0.351524	 0.000000 
Sr2	 0.540860	 0.628326	 0.000000 
Ti3	 0.299379	 0.693031	 0.500000 
Sr4	 0.449354	 0.286820	 0.500000 
Ti5	 0.690835	 0.222115	 0.000000 
Sr6	 0.057897	 0.757735	 0.000000 
Ti7	 0.782341	 0.563621	 0.500000 
#                 ---end-of-data-block---
