data_A fcc partile with size of 6.4 A with 100/111/110 ratio of 1/0.94005/2
_cell_length_a               11.760000
_cell_length_b               11.760000
_cell_length_c               11.760000
_cell_angle_alpha          90.000000
_cell_angle_beta           90.000000
_cell_angle_gamma          90.000000
_symmetry_cell_setting          Triclinic
_symmetry_space_group_name_H-M 'P 1' 
loop_
_atom_site_label
_atom_site_fract_x
_atom_site_fract_y
_atom_site_fract_z
Pt1	 0.540354	 0.433202	 0.382149 
Pt2	 0.479350	 0.660873	 0.382149 
Pt3	 0.348864	 0.503901	 0.500000 
Pt4	 0.479350	 0.660873	 0.617851 
Pt5	 0.670839	 0.590174	 0.500000 
Pt6	 0.540354	 0.433202	 0.617851 
#                 ---end-of-data-block---
