data_A fcc partile with size of 6.4 A with 100/111/110 ratio of 1/0.917517/2
_cell_length_a               11.760000
_cell_length_b               11.760000
_cell_length_c               11.760000
_cell_angle_alpha          90.000000
_cell_angle_beta           90.000000
_cell_angle_gamma          90.000000
_symmetry_cell_setting          Triclinic
_symmetry_space_group_name_H-M 'P 1' 
loop_
_atom_site_label
_atom_site_fract_x
_atom_site_fract_y
_atom_site_fract_z
Pt1	 0.581148	 0.462740	 0.500000 
Pt2	 0.538012	 0.623728	 0.333333 
Pt3	 0.377024	 0.580591	 0.500000 
Pt4	 0.494875	 0.784715	 0.500000 
Pt5	 0.698999	 0.666864	 0.500000 
Pt6	 0.538012	 0.623728	 0.666667 
#                 ---end-of-data-block---
