data_C:\Users\admin\Documents\atomsegmentation_bupt_fullsuite_3\misc\01276.cif
_cell_length_a               7.913200
_cell_length_b               7.913200
_cell_length_c               5.449400
_cell_angle_alpha          90.000000
_cell_angle_beta           90.000000
_cell_angle_gamma          90.000000
_symmetry_cell_setting          Triclinic
_symmetry_space_group_name_H-M 'P 1' 
loop_
_atom_site_label
_atom_site_fract_x
_atom_site_fract_y
_atom_site_fract_z
Sc1	 0.091801	 0.222132	 0.500000 
Sc2	 0.481118	 0.701032	 0.000000 
Sc3	 0.574764	 0.351541	 0.500000 
Dy4	 0.321914	 0.329265	 0.017200 
Dy5	 0.733969	 0.723309	 0.517200 
Dy6	 0.827614	 0.373818	 0.982800 
Dy7	 0.228268	 0.678755	 0.482800 
#                 ---end-of-data-block---
