data_C:\Users\admin\Documents\atomsegmentation_bupt_fullsuite_3\misc\01284.cif
_cell_length_a               7.913200
_cell_length_b               7.913200
_cell_length_c               5.449400
_cell_angle_alpha          90.000000
_cell_angle_beta           90.000000
_cell_angle_gamma          90.000000
_symmetry_cell_setting          Triclinic
_symmetry_space_group_name_H-M 'P 1' 
loop_
_atom_site_label
_atom_site_fract_x
_atom_site_fract_y
_atom_site_fract_z
Sc1	 0.812161	 0.621999	 0.000000 
Sc2	 0.631252	 0.935343	 0.500000 
Sc3	 0.379149	 0.371999	 0.000000 
Sc4	 0.198239	 0.685343	 0.500000 
Dy5	 0.617617	 0.458958	 0.517200 
Dy6	 0.436708	 0.772303	 0.982800 
Dy7	 0.140680	 0.285039	 0.482800 
#                 ---end-of-data-block---
