data_C:\Users\admin\Documents\atomsegmentation_bupt_fullsuite_3\misc\01288.cif
_cell_length_a               7.913200
_cell_length_b               7.913200
_cell_length_c               5.449400
_cell_angle_alpha          90.000000
_cell_angle_beta           90.000000
_cell_angle_gamma          90.000000
_symmetry_cell_setting          Triclinic
_symmetry_space_group_name_H-M 'P 1' 
loop_
_atom_site_label
_atom_site_fract_x
_atom_site_fract_y
_atom_site_fract_z
Sc1	 0.768099	 0.898394	 0.000000 
Sc2	 0.414546	 0.544841	 0.000000 
Sc3	 0.670391	 0.288996	 0.500000 
Dy4	 0.462554	 0.143279	 0.017200 
Dy5	 0.622382	 0.690558	 0.517200 
Dy6	 0.878227	 0.434713	 0.982800 
Dy7	 0.206709	 0.399124	 0.482800 
#                 ---end-of-data-block---
