data_C:\Users\admin\Documents\atomsegmentation_bupt_fullsuite_3\misc\01293.cif
_cell_length_a               7.913200
_cell_length_b               7.913200
_cell_length_c               5.449400
_cell_angle_alpha          90.000000
_cell_angle_beta           90.000000
_cell_angle_gamma          90.000000
_symmetry_cell_setting          Triclinic
_symmetry_space_group_name_H-M 'P 1' 
loop_
_atom_site_label
_atom_site_fract_x
_atom_site_fract_y
_atom_site_fract_z
Sc1	 0.333912	 0.452319	 0.000000 
Sc2	 0.589757	 0.196474	 0.500000 
Sc3	 0.687465	 0.805872	 0.000000 
Sc4	 0.943310	 0.550027	 0.500000 
Dy5	 0.735474	 0.404310	 0.017200 
Dy6	 0.188195	 0.244482	 0.517200 
Dy7	 0.479629	 0.660155	 0.482800 
#                 ---end-of-data-block---
