data_C:\Users\admin\Documents\atomsegmentation_bupt_fullsuite_3\misc\01295.cif
_cell_length_a               7.913200
_cell_length_b               7.913200
_cell_length_c               5.449400
_cell_angle_alpha          90.000000
_cell_angle_beta           90.000000
_cell_angle_gamma          90.000000
_symmetry_cell_setting          Triclinic
_symmetry_space_group_name_H-M 'P 1' 
loop_
_atom_site_label
_atom_site_fract_x
_atom_site_fract_y
_atom_site_fract_z
Sc1	 0.183622	 0.459210	 0.000000 
Sc2	 0.439467	 0.203365	 0.500000 
Sc3	 0.537176	 0.812763	 0.000000 
Sc4	 0.793021	 0.556918	 0.500000 
Dy5	 0.585184	 0.411201	 0.017200 
Dy6	 0.745012	 0.958480	 0.517200 
Dy7	 0.329339	 0.667046	 0.482800 
#                 ---end-of-data-block---
