data_C:\Users\admin\Documents\atomsegmentation_bupt_fullsuite_3\misc\01306.cif
_cell_length_a               7.913200
_cell_length_b               7.913200
_cell_length_c               5.449400
_cell_angle_alpha          90.000000
_cell_angle_beta           90.000000
_cell_angle_gamma          90.000000
_symmetry_cell_setting          Triclinic
_symmetry_space_group_name_H-M 'P 1' 
loop_
_atom_site_label
_atom_site_fract_x
_atom_site_fract_y
_atom_site_fract_z
Sc1	 0.785453	 0.939567	 0.500000 
Sc2	 0.306553	 0.550250	 0.000000 
Sc3	 0.656044	 0.456604	 0.500000 
Dy4	 0.548911	 0.226491	 0.017200 
Dy5	 0.413686	 0.780363	 0.517200 
Dy6	 0.763177	 0.686717	 0.982800 
Dy7	 0.199420	 0.320137	 0.482800 
#                 ---end-of-data-block---
