data_C:\Users\admin\Documents\atomsegmentation_bupt_fullsuite_3\misc\01303.cif
_cell_length_a               7.913200
_cell_length_b               7.913200
_cell_length_c               5.449400
_cell_angle_alpha          90.000000
_cell_angle_beta           90.000000
_cell_angle_gamma          90.000000
_symmetry_cell_setting          Triclinic
_symmetry_space_group_name_H-M 'P 1' 
loop_
_atom_site_label
_atom_site_fract_x
_atom_site_fract_y
_atom_site_fract_z
Sc1	 0.702115	 0.779068	 0.000000 
Sc2	 0.388770	 0.959978	 0.500000 
Sc3	 0.452115	 0.346055	 0.000000 
Sc4	 0.138770	 0.526965	 0.500000 
Dy5	 0.615155	 0.540599	 0.517200 
Dy6	 0.301810	 0.721509	 0.982800 
Dy7	 0.289075	 0.151511	 0.482800 
#                 ---end-of-data-block---
