data_C:\Users\admin\Documents\atomsegmentation_bupt_fullsuite_3\misc\01302.cif
_cell_length_a               7.913200
_cell_length_b               7.913200
_cell_length_c               5.449400
_cell_angle_alpha          90.000000
_cell_angle_beta           90.000000
_cell_angle_gamma          90.000000
_symmetry_cell_setting          Triclinic
_symmetry_space_group_name_H-M 'P 1' 
loop_
_atom_site_label
_atom_site_fract_x
_atom_site_fract_y
_atom_site_fract_z
Sc1	 0.548522	 0.525313	 0.000000 
Sc2	 0.235178	 0.706223	 0.500000 
Sc3	 0.298522	 0.092300	 0.000000 
Dy4	 0.948827	 0.582872	 0.017200 
Dy5	 0.461563	 0.286844	 0.517200 
Dy6	 0.148218	 0.467754	 0.982800 
Dy7	 0.635482	 0.763782	 0.482800 
#                 ---end-of-data-block---
