data_TiO2_rutile [001] nx 2 ny 2 nz 1
_cell_length_a               9.188000
_cell_length_b               9.188000
_cell_length_c               2.959000
_cell_angle_alpha          90.000000
_cell_angle_beta           90.000000
_cell_angle_gamma          90.000000
_symmetry_cell_setting          Triclinic
_symmetry_space_group_name_H-M 'P 1' 
loop_
_atom_site_label
_atom_site_fract_x
_atom_site_fract_y
_atom_site_fract_z
Ti1	 0.309178	 0.097451	 0.000000 
Ti2	 0.485955	 0.403637	 0.500000 
Ti3	 0.179769	 0.580414	 0.000000 
Ti4	 0.356545	 0.886600	 0.500000 
Ti5	 0.792141	 0.226860	 0.000000 
Ti6	 0.968918	 0.533047	 0.500000 
Ti7	 0.662732	 0.709823	 0.000000 
#                 ---end-of-data-block---
