data_TiO2_rutile [001] nx 2 ny 2 nz 1
_cell_length_a               9.188000
_cell_length_b               9.188000
_cell_length_c               2.959000
_cell_angle_alpha          90.000000
_cell_angle_beta           90.000000
_cell_angle_gamma          90.000000
_symmetry_cell_setting          Triclinic
_symmetry_space_group_name_H-M 'P 1' 
loop_
_atom_site_label
_atom_site_fract_x
_atom_site_fract_y
_atom_site_fract_z
Ti1	 0.256711	 0.276893	 0.000000 
Ti2	 0.433488	 0.583079	 0.500000 
Ti3	 0.127302	 0.759856	 0.000000 
Ti4	 0.562897	 0.100117	 0.500000 
Ti5	 0.739674	 0.406303	 0.000000 
Ti6	 0.916451	 0.712489	 0.500000 
Ti7	 0.610264	 0.889266	 0.000000 
#                 ---end-of-data-block---
