data_TiO2_rutile [001] nx 2 ny 2 nz 1
_cell_length_a               9.188000
_cell_length_b               9.188000
_cell_length_c               2.959000
_cell_angle_alpha          90.000000
_cell_angle_beta           90.000000
_cell_angle_gamma          90.000000
_symmetry_cell_setting          Triclinic
_symmetry_space_group_name_H-M 'P 1' 
loop_
_atom_site_label
_atom_site_fract_x
_atom_site_fract_y
_atom_site_fract_z
Ti1	 0.456134	 0.412982	 0.000000 
Ti2	 0.547640	 0.754489	 0.500000 
Ti3	 0.206134	 0.845995	 0.000000 
Ti4	 0.797640	 0.321476	 0.500000 
Ti5	 0.889146	 0.662982	 0.000000 
Ti6	 0.114627	 0.504489	 0.500000 
Ti7	 0.364627	 0.071476	 0.500000 
#                 ---end-of-data-block---
