data_TiO2_rutile [001] nx 2 ny 2 nz 1
_cell_length_a               9.188000
_cell_length_b               9.188000
_cell_length_c               2.959000
_cell_angle_alpha          90.000000
_cell_angle_beta           90.000000
_cell_angle_gamma          90.000000
_symmetry_cell_setting          Triclinic
_symmetry_space_group_name_H-M 'P 1' 
loop_
_atom_site_label
_atom_site_fract_x
_atom_site_fract_y
_atom_site_fract_z
Ti1	 0.383366	 0.390185	 0.000000 
Ti2	 0.474872	 0.731691	 0.500000 
Ti3	 0.133366	 0.823198	 0.000000 
Ti4	 0.724872	 0.298678	 0.500000 
Ti5	 0.816379	 0.640185	 0.000000 
Ti6	 0.041860	 0.481691	 0.500000 
Ti7	 0.291860	 0.048678	 0.500000 
#                 ---end-of-data-block---
