data_TiO2_rutile [001] nx 2 ny 2 nz 1
_cell_length_a               9.188000
_cell_length_b               9.188000
_cell_length_c               2.959000
_cell_angle_alpha          90.000000
_cell_angle_beta           90.000000
_cell_angle_gamma          90.000000
_symmetry_cell_setting          Triclinic
_symmetry_space_group_name_H-M 'P 1' 
loop_
_atom_site_label
_atom_site_fract_x
_atom_site_fract_y
_atom_site_fract_z
Ti1	 0.751844	 0.280893	 0.000000 
Ti2	 0.660337	 0.622399	 0.500000 
Ti3	 0.318831	 0.530893	 0.000000 
Ti4	 0.227325	 0.872399	 0.500000 
Ti5	 0.410337	 0.189387	 0.500000 
Ti6	 0.568831	 0.963906	 0.000000 
#                 ---end-of-data-block---
