data_TiO2_rutile [001] nx 2 ny 2 nz 1
_cell_length_a               9.188000
_cell_length_b               9.188000
_cell_length_c               2.959000
_cell_angle_alpha          90.000000
_cell_angle_beta           90.000000
_cell_angle_gamma          90.000000
_symmetry_cell_setting          Triclinic
_symmetry_space_group_name_H-M 'P 1' 
loop_
_atom_site_label
_atom_site_fract_x
_atom_site_fract_y
_atom_site_fract_z
Ti1	 0.394396	 0.304615	 0.000000 
Ti2	 0.302889	 0.646121	 0.500000 
Ti3	 0.735902	 0.396121	 0.500000 
Ti4	 0.644396	 0.737628	 0.000000 
Ti5	 0.052889	 0.213109	 0.500000 
Ti6	 0.211383	 0.987628	 0.000000 
#                 ---end-of-data-block---
