data_TiO2_rutile [001] nx 2 ny 2 nz 1
_cell_length_a               9.188000
_cell_length_b               9.188000
_cell_length_c               2.959000
_cell_angle_alpha          90.000000
_cell_angle_beta           90.000000
_cell_angle_gamma          90.000000
_symmetry_cell_setting          Triclinic
_symmetry_space_group_name_H-M 'P 1' 
loop_
_atom_site_label
_atom_site_fract_x
_atom_site_fract_y
_atom_site_fract_z
Ti1	 0.901843	 0.387560	 0.000000 
Ti2	 0.725066	 0.693747	 0.500000 
Ti3	 0.418880	 0.516970	 0.000000 
Ti4	 0.242104	 0.823156	 0.500000 
Ti5	 0.595657	 0.210784	 0.500000 
Ti6	 0.548290	 0.999933	 0.000000 
Ti7	 0.112694	 0.340193	 0.500000 
#                 ---end-of-data-block---
