data_Si [110] nx 2 ny 1 nz 1
_cell_length_a               7.679180
_cell_length_b               7.679180
_cell_length_c               3.839590
_cell_angle_alpha          90.000000
_cell_angle_beta           90.000000
_cell_angle_gamma          90.000000
_symmetry_cell_setting          Triclinic
_symmetry_space_group_name_H-M 'P 1' 
loop_
_atom_site_label
_atom_site_fract_x
_atom_site_fract_y
_atom_site_fract_z
Si1	 0.317299	 0.434453	 0.000000 
Si2	 0.604534	 0.328404	 0.000000 
Si3	 0.271546	 0.605206	 0.500000 
Si4	 0.467274	 0.840664	 0.500000 
Si5	 0.800262	 0.563862	 0.000000 
Si6	 0.121571	 0.198995	 0.000000 
Si7	 0.754509	 0.734615	 0.500000 
#                 ---end-of-data-block---
