data_Si [110] nx 2 ny 1 nz 1
_cell_length_a               7.679180
_cell_length_b               7.679180
_cell_length_c               3.839590
_cell_angle_alpha          90.000000
_cell_angle_beta           90.000000
_cell_angle_gamma          90.000000
_symmetry_cell_setting          Triclinic
_symmetry_space_group_name_H-M 'P 1' 
loop_
_atom_site_label
_atom_site_fract_x
_atom_site_fract_y
_atom_site_fract_z
Si1	 0.357395	 0.214970	 0.000000 
Si2	 0.461617	 0.791934	 0.000000 
Si3	 0.311642	 0.385723	 0.500000 
Si4	 0.507370	 0.621181	 0.500000 
Si5	 0.840358	 0.344380	 0.000000 
Si6	 0.794605	 0.515133	 0.500000 
Si7	 0.024407	 0.491772	 0.500000 
#                 ---end-of-data-block---
