data_Si [110] nx 2 ny 1 nz 1
_cell_length_a               7.679180
_cell_length_b               7.679180
_cell_length_c               3.839590
_cell_angle_alpha          90.000000
_cell_angle_beta           90.000000
_cell_angle_gamma          90.000000
_symmetry_cell_setting          Triclinic
_symmetry_space_group_name_H-M 'P 1' 
loop_
_atom_site_label
_atom_site_fract_x
_atom_site_fract_y
_atom_site_fract_z
Si1	 0.464551	 0.149424	 0.000000 
Si2	 0.415892	 0.733703	 0.000000 
Si3	 0.376163	 0.302517	 0.500000 
Si4	 0.504281	 0.580610	 0.500000 
Si5	 0.897564	 0.399424	 0.000000 
Si6	 0.809175	 0.552517	 0.500000 
Si7	 0.071268	 0.330610	 0.500000 
#                 ---end-of-data-block---
