data_Si [110] nx 2 ny 1 nz 1
_cell_length_a               7.679180
_cell_length_b               7.679180
_cell_length_c               3.839590
_cell_angle_alpha          90.000000
_cell_angle_beta           90.000000
_cell_angle_gamma          90.000000
_symmetry_cell_setting          Triclinic
_symmetry_space_group_name_H-M 'P 1' 
loop_
_atom_site_label
_atom_site_fract_x
_atom_site_fract_y
_atom_site_fract_z
Si1	 0.529490	 0.282708	 0.000000 
Si2	 0.831266	 0.334485	 0.000000 
Si3	 0.404490	 0.407708	 0.500000 
Si4	 0.456266	 0.709485	 0.500000 
Si5	 0.883043	 0.636261	 0.000000 
Si6	 0.758043	 0.761261	 0.500000 
Si7	 0.102713	 0.355931	 0.500000 
#                 ---end-of-data-block---
