data_Si [110] nx 2 ny 1 nz 1
_cell_length_a               7.679180
_cell_length_b               7.679180
_cell_length_c               3.839590
_cell_angle_alpha          90.000000
_cell_angle_beta           90.000000
_cell_angle_gamma          90.000000
_symmetry_cell_setting          Triclinic
_symmetry_space_group_name_H-M 'P 1' 
loop_
_atom_site_label
_atom_site_fract_x
_atom_site_fract_y
_atom_site_fract_z
Si1	 0.377516	 0.234317	 0.000000 
Si2	 0.679293	 0.286094	 0.000000 
Si3	 0.252516	 0.359317	 0.500000 
Si4	 0.304293	 0.661094	 0.500000 
Si5	 0.731069	 0.587871	 0.000000 
Si6	 0.606069	 0.712871	 0.500000 
#                 ---end-of-data-block---
