data_Si [110] nx 2 ny 1 nz 1
_cell_length_a               7.679180
_cell_length_b               7.679180
_cell_length_c               3.839590
_cell_angle_alpha          90.000000
_cell_angle_beta           90.000000
_cell_angle_gamma          90.000000
_symmetry_cell_setting          Triclinic
_symmetry_space_group_name_H-M 'P 1' 
loop_
_atom_site_label
_atom_site_fract_x
_atom_site_fract_y
_atom_site_fract_z
Si1	 0.438006	 0.296867	 0.000000 
Si2	 0.739783	 0.348643	 0.000000 
Si3	 0.313006	 0.421867	 0.500000 
Si4	 0.364783	 0.723643	 0.500000 
Si5	 0.791559	 0.650420	 0.000000 
Si6	 0.666559	 0.775420	 0.500000 
Si7	 0.011229	 0.370090	 0.500000 
#                 ---end-of-data-block---
