data_Si [110] nx 2 ny 1 nz 1
_cell_length_a               7.679180
_cell_length_b               7.679180
_cell_length_c               3.839590
_cell_angle_alpha          90.000000
_cell_angle_beta           90.000000
_cell_angle_gamma          90.000000
_symmetry_cell_setting          Triclinic
_symmetry_space_group_name_H-M 'P 1' 
loop_
_atom_site_label
_atom_site_fract_x
_atom_site_fract_y
_atom_site_fract_z
Si1	 0.367365	 0.101760	 0.000000 
Si2	 0.169142	 0.653536	 0.000000 
Si3	 0.242365	 0.226760	 0.500000 
Si4	 0.294142	 0.528536	 0.500000 
Si5	 0.720918	 0.455313	 0.000000 
Si6	 0.595918	 0.580313	 0.500000 
Si7	 0.647695	 0.882090	 0.500000 
#                 ---end-of-data-block---
