data_Si [110] nx 2 ny 1 nz 1
_cell_length_a               7.679180
_cell_length_b               7.679180
_cell_length_c               3.839590
_cell_angle_alpha          90.000000
_cell_angle_beta           90.000000
_cell_angle_gamma          90.000000
_symmetry_cell_setting          Triclinic
_symmetry_space_group_name_H-M 'P 1' 
loop_
_atom_site_label
_atom_site_fract_x
_atom_site_fract_y
_atom_site_fract_z
Si1	 0.300157	 0.308488	 0.000000 
Si2	 0.601934	 0.360265	 0.000000 
Si3	 0.175157	 0.433488	 0.500000 
Si4	 0.726934	 0.235265	 0.500000 
Si5	 0.653710	 0.662042	 0.000000 
Si6	 0.955487	 0.713819	 0.000000 
Si7	 0.528710	 0.787042	 0.500000 
#                 ---end-of-data-block---
