data_Si [110] nx 2 ny 1 nz 1
_cell_length_a               7.679180
_cell_length_b               7.679180
_cell_length_c               3.839590
_cell_angle_alpha          90.000000
_cell_angle_beta           90.000000
_cell_angle_gamma          90.000000
_symmetry_cell_setting          Triclinic
_symmetry_space_group_name_H-M 'P 1' 
loop_
_atom_site_label
_atom_site_fract_x
_atom_site_fract_y
_atom_site_fract_z
Si1	 0.430800	 0.331398	 0.000000 
Si2	 0.708893	 0.459516	 0.000000 
Si3	 0.277707	 0.419787	 0.500000 
Si4	 0.249614	 0.724682	 0.500000 
Si5	 0.680800	 0.764411	 0.000000 
Si6	 0.458893	 0.026504	 0.000000 
Si7	 0.527707	 0.852800	 0.500000 
#                 ---end-of-data-block---
