data_Si [110] nx 2 ny 1 nz 1
_cell_length_a               7.679180
_cell_length_b               7.679180
_cell_length_c               3.839590
_cell_angle_alpha          90.000000
_cell_angle_beta           90.000000
_cell_angle_gamma          90.000000
_symmetry_cell_setting          Triclinic
_symmetry_space_group_name_H-M 'P 1' 
loop_
_atom_site_label
_atom_site_fract_x
_atom_site_fract_y
_atom_site_fract_z
Si1	 0.333308	 0.200381	 0.000000 
Si2	 0.611401	 0.328499	 0.000000 
Si3	 0.180215	 0.288769	 0.500000 
Si4	 0.152122	 0.593664	 0.500000 
Si5	 0.583308	 0.633393	 0.000000 
Si6	 0.861401	 0.761511	 0.000000 
Si7	 0.430215	 0.721782	 0.500000 
#                 ---end-of-data-block---
