data_STO [001]2x2x1
_cell_length_a               7.810000
_cell_length_b               7.810000
_cell_length_c               3.905000
_cell_angle_alpha          90.000000
_cell_angle_beta           90.000000
_cell_angle_gamma          90.000000
_symmetry_cell_setting          Triclinic
_symmetry_space_group_name_H-M 'P 1' 
loop_
_atom_site_label
_atom_site_fract_x
_atom_site_fract_y
_atom_site_fract_z
Sr1	 0.331698	 0.163296	 0.000000 
Ti2	 0.508475	 0.469483	 0.500000 
Sr3	 0.202289	 0.646259	 0.000000 
Ti4	 0.379065	 0.952445	 0.500000 
Sr5	 0.814661	 0.292706	 0.000000 
Ti6	 0.025512	 0.340073	 0.500000 
Sr7	 0.685251	 0.775669	 0.000000 
#                 ---end-of-data-block---
