data_STO [001]2x2x1
_cell_length_a               7.810000
_cell_length_b               7.810000
_cell_length_c               3.905000
_cell_angle_alpha          90.000000
_cell_angle_beta           90.000000
_cell_angle_gamma          90.000000
_symmetry_cell_setting          Triclinic
_symmetry_space_group_name_H-M 'P 1' 
loop_
_atom_site_label
_atom_site_fract_x
_atom_site_fract_y
_atom_site_fract_z
Sr1	 0.220491	 0.141293	 0.000000 
Ti2	 0.397268	 0.447479	 0.500000 
Sr3	 0.091082	 0.624256	 0.000000 
Ti4	 0.267858	 0.930442	 0.500000 
Sr5	 0.703454	 0.270703	 0.000000 
Ti6	 0.880231	 0.576889	 0.500000 
Sr7	 0.574044	 0.753666	 0.000000 
#                 ---end-of-data-block---
