data_STO [001]2x2x1
_cell_length_a               7.810000
_cell_length_b               7.810000
_cell_length_c               3.905000
_cell_angle_alpha          90.000000
_cell_angle_beta           90.000000
_cell_angle_gamma          90.000000
_symmetry_cell_setting          Triclinic
_symmetry_space_group_name_H-M 'P 1' 
loop_
_atom_site_label
_atom_site_fract_x
_atom_site_fract_y
_atom_site_fract_z
Ti1	 0.431531	 0.211765	 0.500000 
Sr2	 0.090024	 0.303271	 0.000000 
Ti3	 0.181531	 0.644777	 0.500000 
Sr4	 0.773037	 0.120258	 0.000000 
Ti5	 0.864543	 0.461765	 0.500000 
Sr6	 0.523037	 0.553271	 0.000000 
Ti7	 0.614543	 0.894777	 0.500000 
#                 ---end-of-data-block---
