data_STO [001]2x2x1
_cell_length_a               7.810000
_cell_length_b               7.810000
_cell_length_c               3.905000
_cell_angle_alpha          90.000000
_cell_angle_beta           90.000000
_cell_angle_gamma          90.000000
_symmetry_cell_setting          Triclinic
_symmetry_space_group_name_H-M 'P 1' 
loop_
_atom_site_label
_atom_site_fract_x
_atom_site_fract_y
_atom_site_fract_z
Sr1	 0.362812	 0.189192	 0.000000 
Ti2	 0.271305	 0.530698	 0.500000 
Ti3	 0.704318	 0.280698	 0.500000 
Sr4	 0.612812	 0.622204	 0.000000 
Ti5	 0.521305	 0.963711	 0.500000 
Sr6	 0.179799	 0.872204	 0.000000 
Ti7	 0.954318	 0.713711	 0.500000 
#                 ---end-of-data-block---
