data_STO [001]2x2x1
_cell_length_a               7.810000
_cell_length_b               7.810000
_cell_length_c               3.905000
_cell_angle_alpha          90.000000
_cell_angle_beta           90.000000
_cell_angle_gamma          90.000000
_symmetry_cell_setting          Triclinic
_symmetry_space_group_name_H-M 'P 1' 
loop_
_atom_site_label
_atom_site_fract_x
_atom_site_fract_y
_atom_site_fract_z
Sr1	 0.586976	 0.306423	 0.000000 
Ti2	 0.495469	 0.647929	 0.500000 
Sr3	 0.153963	 0.556423	 0.000000 
Ti4	 0.928482	 0.397929	 0.500000 
Sr5	 0.836976	 0.739436	 0.000000 
Ti6	 0.245469	 0.214916	 0.500000 
Sr7	 0.403963	 0.989436	 0.000000 
#                 ---end-of-data-block---
