data_STO [001]2x2x1
_cell_length_a               7.810000
_cell_length_b               7.810000
_cell_length_c               3.905000
_cell_angle_alpha          90.000000
_cell_angle_beta           90.000000
_cell_angle_gamma          90.000000
_symmetry_cell_setting          Triclinic
_symmetry_space_group_name_H-M 'P 1' 
loop_
_atom_site_label
_atom_site_fract_x
_atom_site_fract_y
_atom_site_fract_z
Sr1	 0.579527	 0.411742	 0.000000 
Ti2	 0.488021	 0.753248	 0.500000 
Sr3	 0.146514	 0.661742	 0.000000 
Ti4	 0.921033	 0.503248	 0.500000 
Sr5	 0.829527	 0.844754	 0.000000 
Ti6	 0.238021	 0.320235	 0.500000 
Ti7	 0.671033	 0.070235	 0.500000 
#                 ---end-of-data-block---
