data_STO [001]2x2x1
_cell_length_a               7.810000
_cell_length_b               7.810000
_cell_length_c               3.905000
_cell_angle_alpha          90.000000
_cell_angle_beta           90.000000
_cell_angle_gamma          90.000000
_symmetry_cell_setting          Triclinic
_symmetry_space_group_name_H-M 'P 1' 
loop_
_atom_site_label
_atom_site_fract_x
_atom_site_fract_y
_atom_site_fract_z
Sr1	 0.635369	 0.012220	 0.000000 
Ti2	 0.543862	 0.353727	 0.500000 
Sr3	 0.202356	 0.262220	 0.000000 
Ti4	 0.110850	 0.603727	 0.500000 
Sr5	 0.885369	 0.445233	 0.000000 
Ti6	 0.793862	 0.786739	 0.500000 
Sr7	 0.452356	 0.695233	 0.000000 
#                 ---end-of-data-block---
