data_STO [001]2x2x1
_cell_length_a               7.810000
_cell_length_b               7.810000
_cell_length_c               3.905000
_cell_angle_alpha          90.000000
_cell_angle_beta           90.000000
_cell_angle_gamma          90.000000
_symmetry_cell_setting          Triclinic
_symmetry_space_group_name_H-M 'P 1' 
loop_
_atom_site_label
_atom_site_fract_x
_atom_site_fract_y
_atom_site_fract_z
Sr1	 0.396933	 0.044000	 0.000000 
Ti2	 0.220156	 0.350186	 0.500000 
Ti3	 0.703119	 0.220777	 0.500000 
Sr4	 0.526343	 0.526963	 0.000000 
Ti5	 0.349566	 0.833149	 0.500000 
Sr6	 0.043380	 0.656373	 0.000000 
Ti7	 0.832529	 0.703740	 0.500000 
#                 ---end-of-data-block---
