data_STO [001]2x2x1
_cell_length_a               7.810000
_cell_length_b               7.810000
_cell_length_c               3.905000
_cell_angle_alpha          90.000000
_cell_angle_beta           90.000000
_cell_angle_gamma          90.000000
_symmetry_cell_setting          Triclinic
_symmetry_space_group_name_H-M 'P 1' 
loop_
_atom_site_label
_atom_site_fract_x
_atom_site_fract_y
_atom_site_fract_z
Sr1	 0.670583	 0.392380	 0.000000 
Ti2	 0.579077	 0.733886	 0.500000 
Sr3	 0.237570	 0.642380	 0.000000 
Sr4	 0.920583	 0.825393	 0.000000 
Ti5	 0.329077	 0.300873	 0.500000 
Ti6	 0.762089	 0.050873	 0.500000 
#                 ---end-of-data-block---
