data_STO [001]2x2x1
_cell_length_a               7.810000
_cell_length_b               7.810000
_cell_length_c               3.905000
_cell_angle_alpha          90.000000
_cell_angle_beta           90.000000
_cell_angle_gamma          90.000000
_symmetry_cell_setting          Triclinic
_symmetry_space_group_name_H-M 'P 1' 
loop_
_atom_site_label
_atom_site_fract_x
_atom_site_fract_y
_atom_site_fract_z
Sr1	 0.880100	 0.197284	 0.000000 
Ti2	 0.703323	 0.503470	 0.500000 
Sr3	 0.397137	 0.326693	 0.000000 
Ti4	 0.220360	 0.632879	 0.500000 
Ti5	 0.573914	 0.020507	 0.500000 
Sr6	 0.526546	 0.809656	 0.000000 
Ti7	 0.090951	 0.149916	 0.500000 
#                 ---end-of-data-block---
