data_STO [001]2x2x1
_cell_length_a               7.810000
_cell_length_b               7.810000
_cell_length_c               3.905000
_cell_angle_alpha          90.000000
_cell_angle_beta           90.000000
_cell_angle_gamma          90.000000
_symmetry_cell_setting          Triclinic
_symmetry_space_group_name_H-M 'P 1' 
loop_
_atom_site_label
_atom_site_fract_x
_atom_site_fract_y
_atom_site_fract_z
Ti1	 0.486617	 0.222182	 0.500000 
Sr2	 0.145111	 0.130676	 0.000000 
Ti3	 0.053605	 0.472182	 0.500000 
Sr4	 0.828124	 0.313688	 0.000000 
Ti5	 0.736617	 0.655195	 0.500000 
Sr6	 0.395111	 0.563688	 0.000000 
Ti7	 0.303605	 0.905195	 0.500000 
#                 ---end-of-data-block---
