data_STO [001]2x2x1
_cell_length_a               7.810000
_cell_length_b               7.810000
_cell_length_c               3.905000
_cell_angle_alpha          90.000000
_cell_angle_beta           90.000000
_cell_angle_gamma          90.000000
_symmetry_cell_setting          Triclinic
_symmetry_space_group_name_H-M 'P 1' 
loop_
_atom_site_label
_atom_site_fract_x
_atom_site_fract_y
_atom_site_fract_z
Sr1	 0.938689	 0.375676	 0.000000 
Ti2	 0.761912	 0.681862	 0.500000 
Sr3	 0.455726	 0.505086	 0.000000 
Ti4	 0.278949	 0.811272	 0.500000 
Ti5	 0.632503	 0.198899	 0.500000 
Sr6	 0.585135	 0.988049	 0.000000 
Ti7	 0.149540	 0.328309	 0.500000 
#                 ---end-of-data-block---
