data_Pt structure along [001] nx 1 ny 2 nz 1
_cell_length_a               7.810000
_cell_length_b               7.810000
_cell_length_c               5.543717
_cell_angle_alpha          90.000000
_cell_angle_beta           90.000000
_cell_angle_gamma          90.000000
_symmetry_cell_setting          Triclinic
_symmetry_space_group_name_H-M 'P 1' 
loop_
_atom_site_label
_atom_site_fract_x
_atom_site_fract_y
_atom_site_fract_z
Ti1	 0.686972	 0.856745	 0.000000 
Sr2	 0.505786	 0.463462	 0.000000 
Ti3	 0.380786	 0.679968	 0.500000 
Sr4	 0.811972	 0.640238	 0.500000 
Ti5	 0.936972	 0.423732	 0.000000 
Sr6	 0.255786	 0.896474	 0.000000 
Ti7	 0.630786	 0.246955	 0.500000 
#                 ---end-of-data-block---
