data_Pt structure along [001] nx 1 ny 2 nz 1
_cell_length_a               7.810000
_cell_length_b               7.810000
_cell_length_c               5.543717
_cell_angle_alpha          90.000000
_cell_angle_beta           90.000000
_cell_angle_gamma          90.000000
_symmetry_cell_setting          Triclinic
_symmetry_space_group_name_H-M 'P 1' 
loop_
_atom_site_label
_atom_site_fract_x
_atom_site_fract_y
_atom_site_fract_z
Ti1	 0.545120	 0.398621	 0.000000 
Sr2	 0.971897	 0.471844	 0.000000 
Ti3	 0.795120	 0.648621	 0.500000 
Sr4	 0.721897	 0.221844	 0.500000 
Ti5	 0.191567	 0.752175	 0.000000 
Sr6	 0.618344	 0.825398	 0.000000 
Sr7	 0.368344	 0.575398	 0.500000 
#                 ---end-of-data-block---
