data_Pt structure along [001] nx 1 ny 2 nz 1
_cell_length_a               7.810000
_cell_length_b               7.810000
_cell_length_c               5.543717
_cell_angle_alpha          90.000000
_cell_angle_beta           90.000000
_cell_angle_gamma          90.000000
_symmetry_cell_setting          Triclinic
_symmetry_space_group_name_H-M 'P 1' 
loop_
_atom_site_label
_atom_site_fract_x
_atom_site_fract_y
_atom_site_fract_z
Ti1	 0.275140	 0.288676	 0.000000 
Sr2	 0.701917	 0.361899	 0.000000 
Ti3	 0.525140	 0.538676	 0.500000 
Sr4	 0.451917	 0.111899	 0.500000 
Sr5	 0.348364	 0.715452	 0.000000 
Ti6	 0.878694	 0.185122	 0.500000 
Sr7	 0.098364	 0.465452	 0.500000 
#                 ---end-of-data-block---
