data_Pt structure along [001] nx 1 ny 2 nz 1
_cell_length_a               7.810000
_cell_length_b               7.810000
_cell_length_c               5.543717
_cell_angle_alpha          90.000000
_cell_angle_beta           90.000000
_cell_angle_gamma          90.000000
_symmetry_cell_setting          Triclinic
_symmetry_space_group_name_H-M 'P 1' 
loop_
_atom_site_label
_atom_site_fract_x
_atom_site_fract_y
_atom_site_fract_z
Ti1	 0.710253	 0.383496	 0.000000 
Ti2	 0.533476	 0.077309	 0.500000 
Sr3	 0.926759	 0.258496	 0.500000 
Ti4	 0.277240	 0.633496	 0.000000 
Sr5	 0.316970	 0.202309	 0.000000 
Ti6	 0.100463	 0.327309	 0.500000 
Sr7	 0.493746	 0.508496	 0.500000 
#                 ---end-of-data-block---
