data_Pt structure along [001] nx 1 ny 2 nz 1
_cell_length_a               7.810000
_cell_length_b               7.810000
_cell_length_c               5.543717
_cell_angle_alpha          90.000000
_cell_angle_beta           90.000000
_cell_angle_gamma          90.000000
_symmetry_cell_setting          Triclinic
_symmetry_space_group_name_H-M 'P 1' 
loop_
_atom_site_label
_atom_site_fract_x
_atom_site_fract_y
_atom_site_fract_z
Ti1	 0.653844	 0.354387	 0.000000 
Ti2	 0.830620	 0.660573	 0.500000 
Sr3	 0.870350	 0.229387	 0.500000 
Ti4	 0.220831	 0.604387	 0.000000 
Sr5	 0.614114	 0.785573	 0.000000 
Ti6	 0.397608	 0.910573	 0.500000 
Sr7	 0.437337	 0.479387	 0.500000 
#                 ---end-of-data-block---
