data_Pt structure along [001] nx 1 ny 2 nz 1
_cell_length_a               7.810000
_cell_length_b               7.810000
_cell_length_c               5.543717
_cell_angle_alpha          90.000000
_cell_angle_beta           90.000000
_cell_angle_gamma          90.000000
_symmetry_cell_setting          Triclinic
_symmetry_space_group_name_H-M 'P 1' 
loop_
_atom_site_label
_atom_site_fract_x
_atom_site_fract_y
_atom_site_fract_z
Ti1	 0.353276	 0.690405	 0.000000 
Sr2	 0.393005	 0.259219	 0.000000 
Ti3	 0.176499	 0.384219	 0.500000 
Sr4	 0.569782	 0.565405	 0.500000 
Ti5	 0.786288	 0.440405	 0.000000 
Ti6	 0.609512	 0.134219	 0.500000 
Sr7	 0.136769	 0.815405	 0.500000 
#                 ---end-of-data-block---
