data_A fcc partile with size of 6.4 A with 100/111/110 ratio of 1/0.997267/2
_cell_length_a               11.760000
_cell_length_b               11.760000
_cell_length_c               11.760000
_cell_angle_alpha          90.000000
_cell_angle_beta           90.000000
_cell_angle_gamma          90.000000
_symmetry_cell_setting          Triclinic
_symmetry_space_group_name_H-M 'P 1' 
loop_
_atom_site_label
_atom_site_fract_x
_atom_site_fract_y
_atom_site_fract_z
Pt1	 0.506799	 0.601926	 0.382149 
Pt2	 0.279128	 0.662931	 0.382149 
Pt3	 0.349827	 0.471441	 0.500000 
Pt4	 0.279128	 0.662931	 0.617851 
Pt5	 0.436100	 0.793416	 0.500000 
Pt6	 0.506799	 0.601926	 0.617851 
#                 ---end-of-data-block---
