data_A fcc partile with size of 6.4 A with 100/111/110 ratio of 1/0.900774/2
_cell_length_a               11.760000
_cell_length_b               11.760000
_cell_length_c               11.760000
_cell_angle_alpha          90.000000
_cell_angle_beta           90.000000
_cell_angle_gamma          90.000000
_symmetry_cell_setting          Triclinic
_symmetry_space_group_name_H-M 'P 1' 
loop_
_atom_site_label
_atom_site_fract_x
_atom_site_fract_y
_atom_site_fract_z
Pt1	 0.646452	 0.439103	 0.500000 
Pt2	 0.603316	 0.600091	 0.333333 
Pt3	 0.442328	 0.556955	 0.500000 
Pt4	 0.560179	 0.761079	 0.500000 
Pt5	 0.764304	 0.643228	 0.500000 
Pt6	 0.603316	 0.600091	 0.666667 
#                 ---end-of-data-block---
