data_A fcc partile with size of 6.4 A with 100/111/110 ratio of 1/0.840412/2
_cell_length_a               11.760000
_cell_length_b               11.760000
_cell_length_c               11.760000
_cell_angle_alpha          90.000000
_cell_angle_beta           90.000000
_cell_angle_gamma          90.000000
_symmetry_cell_setting          Triclinic
_symmetry_space_group_name_H-M 'P 1' 
loop_
_atom_site_label
_atom_site_fract_x
_atom_site_fract_y
_atom_site_fract_z
Pt1	 0.600478	 0.447908	 0.500000 
Pt2	 0.557342	 0.608895	 0.333333 
Pt3	 0.396354	 0.565759	 0.500000 
Pt4	 0.514205	 0.769883	 0.500000 
Pt5	 0.718329	 0.652032	 0.500000 
Pt6	 0.557342	 0.608895	 0.666667 
#                 ---end-of-data-block---
