data_C:\Users\admin\Documents\atomsegmentation_bupt_fullsuite_3\misc\02302.cif
_cell_length_a               7.913200
_cell_length_b               7.913200
_cell_length_c               5.449400
_cell_angle_alpha          90.000000
_cell_angle_beta           90.000000
_cell_angle_gamma          90.000000
_symmetry_cell_setting          Triclinic
_symmetry_space_group_name_H-M 'P 1' 
loop_
_atom_site_label
_atom_site_fract_x
_atom_site_fract_y
_atom_site_fract_z
Sc1	 0.781592	 0.674162	 0.000000 
Sc2	 0.525747	 0.930007	 0.500000 
Sc3	 0.428039	 0.320608	 0.000000 
Sc4	 0.172194	 0.576453	 0.500000 
Dy5	 0.635875	 0.466325	 0.517200 
Dy6	 0.380030	 0.722170	 0.982800 
Dy7	 0.220203	 0.174891	 0.482800 
#                 ---end-of-data-block---
