data_C:\Users\admin\Documents\atomsegmentation_bupt_fullsuite_3\misc\02300.cif
_cell_length_a               7.913200
_cell_length_b               7.913200
_cell_length_c               5.449400
_cell_angle_alpha          90.000000
_cell_angle_beta           90.000000
_cell_angle_gamma          90.000000
_symmetry_cell_setting          Triclinic
_symmetry_space_group_name_H-M 'P 1' 
loop_
_atom_site_label
_atom_site_fract_x
_atom_site_fract_y
_atom_site_fract_z
Sc1	 0.457382	 0.459743	 0.000000 
Sc2	 0.713227	 0.203898	 0.500000 
Sc3	 0.810935	 0.813297	 0.000000 
Dy4	 0.858944	 0.411734	 0.017200 
Dy5	 0.311665	 0.251907	 0.517200 
Dy6	 0.055820	 0.507752	 0.982800 
Dy7	 0.603099	 0.667579	 0.482800 
#                 ---end-of-data-block---
