data_C:\Users\admin\Documents\atomsegmentation_bupt_fullsuite_3\misc\02316.cif
_cell_length_a               7.913200
_cell_length_b               7.913200
_cell_length_c               5.449400
_cell_angle_alpha          90.000000
_cell_angle_beta           90.000000
_cell_angle_gamma          90.000000
_symmetry_cell_setting          Triclinic
_symmetry_space_group_name_H-M 'P 1' 
loop_
_atom_site_label
_atom_site_fract_x
_atom_site_fract_y
_atom_site_fract_z
Sc1	 0.638128	 0.937161	 0.000000 
Sc2	 0.508719	 0.454198	 0.000000 
Sc3	 0.159228	 0.547844	 0.500000 
Dy4	 0.751077	 0.130440	 0.017200 
Dy5	 0.615852	 0.684311	 0.517200 
Dy6	 0.266361	 0.777957	 0.982800 
Dy7	 0.401586	 0.224085	 0.482800 
#                 ---end-of-data-block---
