data_C:\Users\admin\Documents\atomsegmentation_bupt_fullsuite_3\misc\02312.cif
_cell_length_a               7.913200
_cell_length_b               7.913200
_cell_length_c               5.449400
_cell_angle_alpha          90.000000
_cell_angle_beta           90.000000
_cell_angle_gamma          90.000000
_symmetry_cell_setting          Triclinic
_symmetry_space_group_name_H-M 'P 1' 
loop_
_atom_site_label
_atom_site_fract_x
_atom_site_fract_y
_atom_site_fract_z
Sc1	 0.352285	 0.836152	 0.000000 
Sc2	 0.665630	 0.655242	 0.500000 
Sc3	 0.102285	 0.403139	 0.000000 
Sc4	 0.415630	 0.222229	 0.500000 
Dy5	 0.752590	 0.893711	 0.017200 
Dy6	 0.265325	 0.597683	 0.517200 
Dy7	 0.578670	 0.416773	 0.982800 
#                 ---end-of-data-block---
