data_TiO2_rutile [001] nx 2 ny 2 nz 1
_cell_length_a               9.188000
_cell_length_b               9.188000
_cell_length_c               2.959000
_cell_angle_alpha          90.000000
_cell_angle_beta           90.000000
_cell_angle_gamma          90.000000
_symmetry_cell_setting          Triclinic
_symmetry_space_group_name_H-M 'P 1' 
loop_
_atom_site_label
_atom_site_fract_x
_atom_site_fract_y
_atom_site_fract_z
Ti1	 0.351923	 0.146860	 0.000000 
Ti2	 0.260417	 0.488366	 0.500000 
Ti3	 0.693430	 0.238366	 0.500000 
Ti4	 0.601923	 0.579873	 0.000000 
Ti5	 0.510417	 0.921379	 0.500000 
Ti6	 0.168911	 0.829873	 0.000000 
Ti7	 0.943430	 0.671379	 0.500000 
#                 ---end-of-data-block---
