data_TiO2_rutile [001] nx 2 ny 2 nz 1
_cell_length_a               9.188000
_cell_length_b               9.188000
_cell_length_c               2.959000
_cell_angle_alpha          90.000000
_cell_angle_beta           90.000000
_cell_angle_gamma          90.000000
_symmetry_cell_setting          Triclinic
_symmetry_space_group_name_H-M 'P 1' 
loop_
_atom_site_label
_atom_site_fract_x
_atom_site_fract_y
_atom_site_fract_z
Ti1	 0.498987	 0.305754	 0.000000 
Ti2	 0.322210	 0.611940	 0.500000 
Ti3	 0.016024	 0.435164	 0.000000 
Ti4	 0.805173	 0.482531	 0.500000 
Ti5	 0.628396	 0.788717	 0.000000 
Ti6	 0.192801	 0.128977	 0.500000 
Ti7	 0.145433	 0.918127	 0.000000 
#                 ---end-of-data-block---
