data_TiO2_rutile [001] nx 2 ny 2 nz 1
_cell_length_a               9.188000
_cell_length_b               9.188000
_cell_length_c               2.959000
_cell_angle_alpha          90.000000
_cell_angle_beta           90.000000
_cell_angle_gamma          90.000000
_symmetry_cell_setting          Triclinic
_symmetry_space_group_name_H-M 'P 1' 
loop_
_atom_site_label
_atom_site_fract_x
_atom_site_fract_y
_atom_site_fract_z
Ti1	 0.546860	 0.391905	 0.000000 
Ti2	 0.370083	 0.698092	 0.500000 
Ti3	 0.063897	 0.521315	 0.000000 
Ti4	 0.853046	 0.568682	 0.500000 
Ti5	 0.676269	 0.874868	 0.000000 
Ti6	 0.240674	 0.215129	 0.500000 
Ti7	 0.723637	 0.085719	 0.500000 
#                 ---end-of-data-block---
