data_TiO2_rutile [001] nx 2 ny 2 nz 1
_cell_length_a               9.188000
_cell_length_b               9.188000
_cell_length_c               2.959000
_cell_angle_alpha          90.000000
_cell_angle_beta           90.000000
_cell_angle_gamma          90.000000
_symmetry_cell_setting          Triclinic
_symmetry_space_group_name_H-M 'P 1' 
loop_
_atom_site_label
_atom_site_fract_x
_atom_site_fract_y
_atom_site_fract_z
Ti1	 0.851653	 0.281090	 0.000000 
Ti2	 0.760147	 0.622596	 0.500000 
Ti3	 0.418641	 0.531090	 0.000000 
Ti4	 0.327134	 0.872596	 0.500000 
Ti5	 0.510147	 0.189584	 0.500000 
Ti6	 0.668641	 0.964103	 0.000000 
Ti7	 0.077134	 0.439584	 0.500000 
#                 ---end-of-data-block---
