data_TiO2_rutile [001] nx 2 ny 2 nz 1
_cell_length_a               9.188000
_cell_length_b               9.188000
_cell_length_c               2.959000
_cell_angle_alpha          90.000000
_cell_angle_beta           90.000000
_cell_angle_gamma          90.000000
_symmetry_cell_setting          Triclinic
_symmetry_space_group_name_H-M 'P 1' 
loop_
_atom_site_label
_atom_site_fract_x
_atom_site_fract_y
_atom_site_fract_z
Ti1	 0.880534	 0.345732	 0.000000 
Ti2	 0.703758	 0.651918	 0.500000 
Ti3	 0.397572	 0.475141	 0.000000 
Ti4	 0.220795	 0.781327	 0.500000 
Ti5	 0.574348	 0.168955	 0.500000 
Ti6	 0.526981	 0.958104	 0.000000 
Ti7	 0.091385	 0.298365	 0.500000 
#                 ---end-of-data-block---
