data_STO [001]2x2x1
_cell_length_a               7.810000
_cell_length_b               7.810000
_cell_length_c               3.905000
_cell_angle_alpha          90.000000
_cell_angle_beta           90.000000
_cell_angle_gamma          90.000000
_symmetry_cell_setting          Triclinic
_symmetry_space_group_name_H-M 'P 1' 
loop_
_atom_site_label
_atom_site_fract_x
_atom_site_fract_y
_atom_site_fract_z
Sr1	 0.493870	 0.007124	 0.000000 
Ti2	 0.585377	 0.348630	 0.500000 
Sr3	 0.243870	 0.440136	 0.000000 
Ti4	 0.335377	 0.781643	 0.500000 
Sr5	 0.926883	 0.257124	 0.000000 
Sr6	 0.676883	 0.690136	 0.000000 
#                 ---end-of-data-block---
