data_STO [001]2x2x1
_cell_length_a               7.810000
_cell_length_b               7.810000
_cell_length_c               3.905000
_cell_angle_alpha          90.000000
_cell_angle_beta           90.000000
_cell_angle_gamma          90.000000
_symmetry_cell_setting          Triclinic
_symmetry_space_group_name_H-M 'P 1' 
loop_
_atom_site_label
_atom_site_fract_x
_atom_site_fract_y
_atom_site_fract_z
Ti1	 0.405948	 0.250544	 0.500000 
Sr2	 0.099762	 0.427321	 0.000000 
Ti3	 0.276538	 0.733507	 0.500000 
Sr4	 0.712134	 0.073767	 0.000000 
Ti5	 0.888911	 0.379954	 0.500000 
Sr6	 0.582725	 0.556730	 0.000000 
Ti7	 0.759501	 0.862917	 0.500000 
#                 ---end-of-data-block---
