data_STO [001]2x2x1
_cell_length_a               7.810000
_cell_length_b               7.810000
_cell_length_c               3.905000
_cell_angle_alpha          90.000000
_cell_angle_beta           90.000000
_cell_angle_gamma          90.000000
_symmetry_cell_setting          Triclinic
_symmetry_space_group_name_H-M 'P 1' 
loop_
_atom_site_label
_atom_site_fract_x
_atom_site_fract_y
_atom_site_fract_z
Sr1	 0.651782	 0.068876	 0.000000 
Ti2	 0.743288	 0.410383	 0.500000 
Sr3	 0.401782	 0.501889	 0.000000 
Ti4	 0.493288	 0.843395	 0.500000 
Ti5	 0.310276	 0.160383	 0.500000 
Sr6	 0.834795	 0.751889	 0.000000 
Ti7	 0.060276	 0.593395	 0.500000 
#                 ---end-of-data-block---
