data_STO [001]2x2x1
_cell_length_a               7.810000
_cell_length_b               7.810000
_cell_length_c               3.905000
_cell_angle_alpha          90.000000
_cell_angle_beta           90.000000
_cell_angle_gamma          90.000000
_symmetry_cell_setting          Triclinic
_symmetry_space_group_name_H-M 'P 1' 
loop_
_atom_site_label
_atom_site_fract_x
_atom_site_fract_y
_atom_site_fract_z
Sr1	 0.529511	 0.001104	 0.000000 
Ti2	 0.621017	 0.342611	 0.500000 
Sr3	 0.279511	 0.434117	 0.000000 
Ti4	 0.371017	 0.775623	 0.500000 
Sr5	 0.962524	 0.251104	 0.000000 
Ti6	 0.188005	 0.092611	 0.500000 
Sr7	 0.712524	 0.684117	 0.000000 
#                 ---end-of-data-block---
