data_STO [001]2x2x1
_cell_length_a               7.810000
_cell_length_b               7.810000
_cell_length_c               3.905000
_cell_angle_alpha          90.000000
_cell_angle_beta           90.000000
_cell_angle_gamma          90.000000
_symmetry_cell_setting          Triclinic
_symmetry_space_group_name_H-M 'P 1' 
loop_
_atom_site_label
_atom_site_fract_x
_atom_site_fract_y
_atom_site_fract_z
Sr1	 0.684804	 0.014172	 0.000000 
Ti2	 0.593297	 0.355678	 0.500000 
Sr3	 0.251791	 0.264172	 0.000000 
Ti4	 0.160285	 0.605678	 0.500000 
Sr5	 0.934804	 0.447184	 0.000000 
Ti6	 0.843297	 0.788691	 0.500000 
Sr7	 0.501791	 0.697184	 0.000000 
#                 ---end-of-data-block---
