data_STO [001]2x2x1
_cell_length_a               7.810000
_cell_length_b               7.810000
_cell_length_c               3.905000
_cell_angle_alpha          90.000000
_cell_angle_beta           90.000000
_cell_angle_gamma          90.000000
_symmetry_cell_setting          Triclinic
_symmetry_space_group_name_H-M 'P 1' 
loop_
_atom_site_label
_atom_site_fract_x
_atom_site_fract_y
_atom_site_fract_z
Sr1	 0.523318	 0.114831	 0.000000 
Ti2	 0.431812	 0.456337	 0.500000 
Sr3	 0.090306	 0.364831	 0.000000 
Ti4	 0.864825	 0.206337	 0.500000 
Sr5	 0.773318	 0.547843	 0.000000 
Ti6	 0.681812	 0.889350	 0.500000 
Sr7	 0.340306	 0.797843	 0.000000 
#                 ---end-of-data-block---
