data_STO [001]2x2x1
_cell_length_a               7.810000
_cell_length_b               7.810000
_cell_length_c               3.905000
_cell_angle_alpha          90.000000
_cell_angle_beta           90.000000
_cell_angle_gamma          90.000000
_symmetry_cell_setting          Triclinic
_symmetry_space_group_name_H-M 'P 1' 
loop_
_atom_site_label
_atom_site_fract_x
_atom_site_fract_y
_atom_site_fract_z
Sr1	 0.742243	 0.302871	 0.000000 
Ti2	 0.565466	 0.609057	 0.500000 
Sr3	 0.259280	 0.432281	 0.000000 
Ti4	 0.082503	 0.738467	 0.500000 
Sr5	 0.871652	 0.785834	 0.000000 
Ti6	 0.436057	 0.126094	 0.500000 
Sr7	 0.388689	 0.915243	 0.000000 
#                 ---end-of-data-block---
