data_STO [001]2x2x1
_cell_length_a               7.810000
_cell_length_b               7.810000
_cell_length_c               3.905000
_cell_angle_alpha          90.000000
_cell_angle_beta           90.000000
_cell_angle_gamma          90.000000
_symmetry_cell_setting          Triclinic
_symmetry_space_group_name_H-M 'P 1' 
loop_
_atom_site_label
_atom_site_fract_x
_atom_site_fract_y
_atom_site_fract_z
Sr1	 0.510012	 0.291972	 0.000000 
Ti2	 0.333235	 0.598158	 0.500000 
Sr3	 0.027049	 0.421381	 0.000000 
Ti4	 0.816198	 0.468749	 0.500000 
Sr5	 0.639421	 0.774935	 0.000000 
Ti6	 0.203826	 0.115195	 0.500000 
Sr7	 0.156458	 0.904344	 0.000000 
#                 ---end-of-data-block---
