data_Pt structure along [001] nx 1 ny 2 nz 1
_cell_length_a               7.810000
_cell_length_b               7.810000
_cell_length_c               5.543717
_cell_angle_alpha          90.000000
_cell_angle_beta           90.000000
_cell_angle_gamma          90.000000
_symmetry_cell_setting          Triclinic
_symmetry_space_group_name_H-M 'P 1' 
loop_
_atom_site_label
_atom_site_fract_x
_atom_site_fract_y
_atom_site_fract_z
Ti1	 0.304467	 0.446895	 0.000000 
Sr2	 0.710678	 0.296920	 0.000000 
Ti3	 0.645974	 0.538401	 0.500000 
Sr4	 0.369172	 0.205413	 0.500000 
Ti5	 0.175058	 0.929858	 0.000000 
Sr6	 0.581269	 0.779883	 0.000000 
Sr7	 0.239762	 0.688376	 0.500000 
#                 ---end-of-data-block---
