data_Pt structure along [001] nx 1 ny 2 nz 1
_cell_length_a               7.810000
_cell_length_b               7.810000
_cell_length_c               5.543717
_cell_angle_alpha          90.000000
_cell_angle_beta           90.000000
_cell_angle_gamma          90.000000
_symmetry_cell_setting          Triclinic
_symmetry_space_group_name_H-M 'P 1' 
loop_
_atom_site_label
_atom_site_fract_x
_atom_site_fract_y
_atom_site_fract_z
Ti1	 0.343487	 0.427319	 0.000000 
Sr2	 0.749698	 0.277344	 0.000000 
Ti3	 0.684993	 0.518825	 0.500000 
Sr4	 0.408192	 0.185837	 0.500000 
Ti5	 0.214077	 0.910282	 0.000000 
Sr6	 0.620289	 0.760307	 0.000000 
Sr7	 0.278782	 0.668800	 0.500000 
#                 ---end-of-data-block---
