data_Pt structure along [001] nx 1 ny 2 nz 1
_cell_length_a               7.810000
_cell_length_b               7.810000
_cell_length_c               5.543717
_cell_angle_alpha          90.000000
_cell_angle_beta           90.000000
_cell_angle_gamma          90.000000
_symmetry_cell_setting          Triclinic
_symmetry_space_group_name_H-M 'P 1' 
loop_
_atom_site_label
_atom_site_fract_x
_atom_site_fract_y
_atom_site_fract_z
Ti1	 0.695028	 0.302583	 0.000000 
Ti2	 0.353522	 0.211077	 0.500000 
Sr3	 0.759733	 0.061102	 0.500000 
Ti4	 0.565619	 0.785546	 0.000000 
Sr5	 0.288817	 0.452558	 0.000000 
Ti6	 0.224112	 0.694040	 0.500000 
Sr7	 0.630324	 0.544065	 0.500000 
#                 ---end-of-data-block---
