data_Pt structure along [001] nx 1 ny 2 nz 1
_cell_length_a               7.810000
_cell_length_b               7.810000
_cell_length_c               5.543717
_cell_angle_alpha          90.000000
_cell_angle_beta           90.000000
_cell_angle_gamma          90.000000
_symmetry_cell_setting          Triclinic
_symmetry_space_group_name_H-M 'P 1' 
loop_
_atom_site_label
_atom_site_fract_x
_atom_site_fract_y
_atom_site_fract_z
Ti1	 0.649564	 0.551087	 0.000000 
Sr2	 0.372763	 0.218099	 0.000000 
Ti3	 0.308058	 0.459581	 0.500000 
Sr4	 0.714269	 0.309606	 0.500000 
Ti5	 0.778974	 0.068124	 0.000000 
Sr6	 0.243353	 0.701062	 0.000000 
Sr7	 0.584860	 0.792569	 0.500000 
#                 ---end-of-data-block---
