data_Pt structure along [001] nx 1 ny 2 nz 1
_cell_length_a               7.810000
_cell_length_b               7.810000
_cell_length_c               5.543717
_cell_angle_alpha          90.000000
_cell_angle_beta           90.000000
_cell_angle_gamma          90.000000
_symmetry_cell_setting          Triclinic
_symmetry_space_group_name_H-M 'P 1' 
loop_
_atom_site_label
_atom_site_fract_x
_atom_site_fract_y
_atom_site_fract_z
Ti1	 0.209612	 0.296635	 0.000000 
Sr2	 0.640798	 0.256905	 0.000000 
Ti3	 0.515798	 0.473412	 0.500000 
Sr4	 0.334612	 0.080129	 0.500000 
Sr5	 0.390798	 0.689918	 0.000000 
Ti6	 0.265798	 0.906424	 0.500000 
Sr7	 0.084612	 0.513141	 0.500000 
#                 ---end-of-data-block---
