data_Pt structure along [001] nx 1 ny 2 nz 1
_cell_length_a               7.810000
_cell_length_b               7.810000
_cell_length_c               5.543717
_cell_angle_alpha          90.000000
_cell_angle_beta           90.000000
_cell_angle_gamma          90.000000
_symmetry_cell_setting          Triclinic
_symmetry_space_group_name_H-M 'P 1' 
loop_
_atom_site_label
_atom_site_fract_x
_atom_site_fract_y
_atom_site_fract_z
Ti1	 0.554180	 0.571530	 0.000000 
Sr2	 0.593909	 0.140343	 0.000000 
Ti3	 0.377403	 0.265343	 0.500000 
Sr4	 0.770686	 0.446530	 0.500000 
Ti5	 0.121167	 0.821530	 0.000000 
Sr6	 0.160897	 0.390343	 0.000000 
Sr7	 0.337673	 0.696530	 0.500000 
#                 ---end-of-data-block---
