data_Pt structure along [001] nx 1 ny 2 nz 1
_cell_length_a               7.810000
_cell_length_b               7.810000
_cell_length_c               5.543717
_cell_angle_alpha          90.000000
_cell_angle_beta           90.000000
_cell_angle_gamma          90.000000
_symmetry_cell_setting          Triclinic
_symmetry_space_group_name_H-M 'P 1' 
loop_
_atom_site_label
_atom_site_fract_x
_atom_site_fract_y
_atom_site_fract_z
Ti1	 0.638111	 0.326769	 0.000000 
Ti2	 0.814888	 0.632956	 0.500000 
Sr3	 0.854618	 0.201769	 0.500000 
Ti4	 0.205099	 0.576769	 0.000000 
Sr5	 0.598382	 0.757956	 0.000000 
Ti6	 0.381875	 0.882956	 0.500000 
Sr7	 0.421605	 0.451769	 0.500000 
#                 ---end-of-data-block---
