data_Pt structure along [001] nx 3 ny 2 nz 1
_cell_length_a               8.315576
_cell_length_b               8.315576
_cell_length_c               2.771859
_cell_angle_alpha          90.000000
_cell_angle_beta           90.000000
_cell_angle_gamma          90.000000
_symmetry_cell_setting          Triclinic
_symmetry_space_group_name_H-M 'P 1' 
loop_
_atom_site_label
_atom_site_fract_x
_atom_site_fract_y
_atom_site_fract_z
Co1	 0.267400	 0.226879	 0.500000 
Co2	 0.045408	 0.411413	 0.000000 
Co3	 0.145391	 0.682221	 0.500000 
Co4	 0.489392	 0.042345	 0.000000 
Co5	 0.589375	 0.313152	 0.500000 
Co6	 0.367383	 0.497686	 0.000000 
Co7	 0.467367	 0.768494	 0.500000 
Co8	 0.811367	 0.128618	 0.000000 
Co9	 0.911350	 0.399425	 0.500000 
Co10	 0.689358	 0.583959	 0.000000 
Co11	 0.789342	 0.854767	 0.500000 
#                 ---end-of-data-block---
