data_TiO2_rutile [001] nx 2 ny 2 nz 1
_cell_length_a               9.188000
_cell_length_b               9.188000
_cell_length_c               2.959000
_cell_angle_alpha          90.000000
_cell_angle_beta           90.000000
_cell_angle_gamma          90.000000
_symmetry_cell_setting          Triclinic
_symmetry_space_group_name_H-M 'P 1' 
loop_
_atom_site_label
_atom_site_fract_x
_atom_site_fract_y
_atom_site_fract_z
Ti1	 0.337656	 0.290410	 0.000000 
Ti2	 0.514433	 0.596596	 0.500000 
Ti3	 0.208247	 0.773373	 0.000000 
Ti4	 0.643843	 0.113633	 0.500000 
Ti5	 0.820619	 0.419819	 0.000000 
Ti6	 0.031470	 0.467186	 0.500000 
Ti7	 0.691210	 0.902782	 0.000000 
#                 ---end-of-data-block---
