data_TiO2_rutile [001] nx 2 ny 2 nz 1
_cell_length_a               9.188000
_cell_length_b               9.188000
_cell_length_c               2.959000
_cell_angle_alpha          90.000000
_cell_angle_beta           90.000000
_cell_angle_gamma          90.000000
_symmetry_cell_setting          Triclinic
_symmetry_space_group_name_H-M 'P 1' 
loop_
_atom_site_label
_atom_site_fract_x
_atom_site_fract_y
_atom_site_fract_z
Ti1	 0.329253	 0.301272	 0.500000 
Ti2	 0.023067	 0.478048	 0.000000 
Ti3	 0.199843	 0.784234	 0.500000 
Ti4	 0.635439	 0.124495	 0.000000 
Ti5	 0.812216	 0.430681	 0.500000 
Ti6	 0.506030	 0.607458	 0.000000 
Ti7	 0.682806	 0.913644	 0.500000 
#                 ---end-of-data-block---
