data_TiO2_rutile [001] nx 2 ny 2 nz 1
_cell_length_a               9.188000
_cell_length_b               9.188000
_cell_length_c               2.959000
_cell_angle_alpha          90.000000
_cell_angle_beta           90.000000
_cell_angle_gamma          90.000000
_symmetry_cell_setting          Triclinic
_symmetry_space_group_name_H-M 'P 1' 
loop_
_atom_site_label
_atom_site_fract_x
_atom_site_fract_y
_atom_site_fract_z
Ti1	 0.504023	 0.438673	 0.000000 
Ti2	 0.595529	 0.780179	 0.500000 
Ti3	 0.254023	 0.871686	 0.000000 
Ti4	 0.845529	 0.347167	 0.500000 
Ti5	 0.937035	 0.688673	 0.000000 
Ti6	 0.162516	 0.530179	 0.500000 
Ti7	 0.412516	 0.097167	 0.500000 
#                 ---end-of-data-block---
