data_TiO2_rutile [001] nx 2 ny 2 nz 1
_cell_length_a               9.188000
_cell_length_b               9.188000
_cell_length_c               2.959000
_cell_angle_alpha          90.000000
_cell_angle_beta           90.000000
_cell_angle_gamma          90.000000
_symmetry_cell_setting          Triclinic
_symmetry_space_group_name_H-M 'P 1' 
loop_
_atom_site_label
_atom_site_fract_x
_atom_site_fract_y
_atom_site_fract_z
Ti1	 0.493349	 0.301235	 0.500000 
Ti2	 0.151843	 0.392741	 0.000000 
Ti3	 0.243349	 0.734247	 0.500000 
Ti4	 0.834855	 0.209728	 0.000000 
Ti5	 0.926362	 0.551235	 0.500000 
Ti6	 0.584855	 0.642741	 0.000000 
Ti7	 0.676362	 0.984247	 0.500000 
#                 ---end-of-data-block---
