data_TiO2_rutile [001] nx 2 ny 2 nz 1
_cell_length_a               9.188000
_cell_length_b               9.188000
_cell_length_c               2.959000
_cell_angle_alpha          90.000000
_cell_angle_beta           90.000000
_cell_angle_gamma          90.000000
_symmetry_cell_setting          Triclinic
_symmetry_space_group_name_H-M 'P 1' 
loop_
_atom_site_label
_atom_site_fract_x
_atom_site_fract_y
_atom_site_fract_z
Ti1	 0.417056	 0.352118	 0.000000 
Ti2	 0.325550	 0.693625	 0.500000 
Ti3	 0.758563	 0.443625	 0.500000 
Ti4	 0.667056	 0.785131	 0.000000 
Ti5	 0.075550	 0.260612	 0.500000 
Ti6	 0.508563	 0.010612	 0.500000 
#                 ---end-of-data-block---
