data_TiO2_rutile [001] nx 2 ny 2 nz 1
_cell_length_a               9.188000
_cell_length_b               9.188000
_cell_length_c               2.959000
_cell_angle_alpha          90.000000
_cell_angle_beta           90.000000
_cell_angle_gamma          90.000000
_symmetry_cell_setting          Triclinic
_symmetry_space_group_name_H-M 'P 1' 
loop_
_atom_site_label
_atom_site_fract_x
_atom_site_fract_y
_atom_site_fract_z
Ti1	 0.338021	 0.076836	 0.000000 
Ti2	 0.246515	 0.418342	 0.500000 
Ti3	 0.679527	 0.168342	 0.500000 
Ti4	 0.588021	 0.509848	 0.000000 
Ti5	 0.496515	 0.851355	 0.500000 
Ti6	 0.155008	 0.759848	 0.000000 
Ti7	 0.929527	 0.601355	 0.500000 
#                 ---end-of-data-block---
