data_TiO2_rutile [001] nx 2 ny 2 nz 1
_cell_length_a               9.188000
_cell_length_b               9.188000
_cell_length_c               2.959000
_cell_angle_alpha          90.000000
_cell_angle_beta           90.000000
_cell_angle_gamma          90.000000
_symmetry_cell_setting          Triclinic
_symmetry_space_group_name_H-M 'P 1' 
loop_
_atom_site_label
_atom_site_fract_x
_atom_site_fract_y
_atom_site_fract_z
Ti1	 0.494980	 0.284554	 0.500000 
Ti2	 0.188793	 0.107777	 0.000000 
Ti3	 0.012017	 0.413963	 0.500000 
Ti4	 0.801166	 0.461330	 0.000000 
Ti5	 0.624389	 0.767517	 0.500000 
Ti6	 0.318203	 0.590740	 0.000000 
Ti7	 0.141426	 0.896926	 0.500000 
#                 ---end-of-data-block---
