data_STO [001]2x2x1
_cell_length_a               7.810000
_cell_length_b               7.810000
_cell_length_c               3.905000
_cell_angle_alpha          90.000000
_cell_angle_beta           90.000000
_cell_angle_gamma          90.000000
_symmetry_cell_setting          Triclinic
_symmetry_space_group_name_H-M 'P 1' 
loop_
_atom_site_label
_atom_site_fract_x
_atom_site_fract_y
_atom_site_fract_z
Sr1	 0.287859	 0.194101	 0.000000 
Ti2	 0.464636	 0.500287	 0.500000 
Sr3	 0.158450	 0.677064	 0.000000 
Ti4	 0.594045	 0.017324	 0.500000 
Sr5	 0.770822	 0.323511	 0.000000 
Ti6	 0.947599	 0.629697	 0.500000 
Sr7	 0.641413	 0.806474	 0.000000 
#                 ---end-of-data-block---
