data_STO [001]2x2x1
_cell_length_a               7.810000
_cell_length_b               7.810000
_cell_length_c               3.905000
_cell_angle_alpha          90.000000
_cell_angle_beta           90.000000
_cell_angle_gamma          90.000000
_symmetry_cell_setting          Triclinic
_symmetry_space_group_name_H-M 'P 1' 
loop_
_atom_site_label
_atom_site_fract_x
_atom_site_fract_y
_atom_site_fract_z
Sr1	 0.521085	 0.076641	 0.000000 
Ti2	 0.697862	 0.382827	 0.500000 
Sr3	 0.391676	 0.559604	 0.000000 
Ti4	 0.568453	 0.865790	 0.500000 
Ti5	 0.214899	 0.253417	 0.500000 
Sr6	 0.874639	 0.689013	 0.000000 
Ti7	 0.085490	 0.736380	 0.500000 
#                 ---end-of-data-block---
