data_STO [001]2x2x1
_cell_length_a               7.810000
_cell_length_b               7.810000
_cell_length_c               3.905000
_cell_angle_alpha          90.000000
_cell_angle_beta           90.000000
_cell_angle_gamma          90.000000
_symmetry_cell_setting          Triclinic
_symmetry_space_group_name_H-M 'P 1' 
loop_
_atom_site_label
_atom_site_fract_x
_atom_site_fract_y
_atom_site_fract_z
Sr1	 0.184367	 0.136777	 0.000000 
Ti2	 0.275874	 0.478283	 0.500000 
Ti3	 0.525874	 0.045270	 0.500000 
Sr4	 0.617380	 0.386777	 0.000000 
Ti5	 0.708886	 0.728283	 0.500000 
Sr6	 0.367380	 0.819789	 0.000000 
Ti7	 0.958886	 0.295270	 0.500000 
#                 ---end-of-data-block---
