data_STO [001]2x2x1
_cell_length_a               7.810000
_cell_length_b               7.810000
_cell_length_c               3.905000
_cell_angle_alpha          90.000000
_cell_angle_beta           90.000000
_cell_angle_gamma          90.000000
_symmetry_cell_setting          Triclinic
_symmetry_space_group_name_H-M 'P 1' 
loop_
_atom_site_label
_atom_site_fract_x
_atom_site_fract_y
_atom_site_fract_z
Sr1	 0.137337	 0.188485	 0.000000 
Ti2	 0.228844	 0.529991	 0.500000 
Ti3	 0.478844	 0.096978	 0.500000 
Sr4	 0.570350	 0.438485	 0.000000 
Ti5	 0.661856	 0.779991	 0.500000 
Sr6	 0.320350	 0.871497	 0.000000 
Ti7	 0.911856	 0.346978	 0.500000 
#                 ---end-of-data-block---
