data_STO [001]2x2x1
_cell_length_a               7.810000
_cell_length_b               7.810000
_cell_length_c               3.905000
_cell_angle_alpha          90.000000
_cell_angle_beta           90.000000
_cell_angle_gamma          90.000000
_symmetry_cell_setting          Triclinic
_symmetry_space_group_name_H-M 'P 1' 
loop_
_atom_site_label
_atom_site_fract_x
_atom_site_fract_y
_atom_site_fract_z
Sr1	 0.608655	 0.308483	 0.000000 
Ti2	 0.517149	 0.649990	 0.500000 
Sr3	 0.175642	 0.558483	 0.000000 
Ti4	 0.950161	 0.399990	 0.500000 
Sr5	 0.858655	 0.741496	 0.000000 
Ti6	 0.267149	 0.216977	 0.500000 
Sr7	 0.425642	 0.991496	 0.000000 
#                 ---end-of-data-block---
