data_STO [001]2x2x1
_cell_length_a               7.810000
_cell_length_b               7.810000
_cell_length_c               3.905000
_cell_angle_alpha          90.000000
_cell_angle_beta           90.000000
_cell_angle_gamma          90.000000
_symmetry_cell_setting          Triclinic
_symmetry_space_group_name_H-M 'P 1' 
loop_
_atom_site_label
_atom_site_fract_x
_atom_site_fract_y
_atom_site_fract_z
Ti1	 0.408654	 0.299085	 0.500000 
Sr2	 0.067148	 0.207579	 0.000000 
Sr3	 0.750161	 0.390591	 0.000000 
Ti4	 0.658654	 0.732098	 0.500000 
Sr5	 0.317148	 0.640591	 0.000000 
Ti6	 0.225642	 0.982098	 0.500000 
#                 ---end-of-data-block---
