data_STO [001]2x2x1
_cell_length_a               7.810000
_cell_length_b               7.810000
_cell_length_c               3.905000
_cell_angle_alpha          90.000000
_cell_angle_beta           90.000000
_cell_angle_gamma          90.000000
_symmetry_cell_setting          Triclinic
_symmetry_space_group_name_H-M 'P 1' 
loop_
_atom_site_label
_atom_site_fract_x
_atom_site_fract_y
_atom_site_fract_z
Sr1	 0.537612	 0.285394	 0.000000 
Ti2	 0.360835	 0.591581	 0.500000 
Sr3	 0.054649	 0.414804	 0.000000 
Ti4	 0.843798	 0.462171	 0.500000 
Sr5	 0.667021	 0.768357	 0.000000 
Ti6	 0.231425	 0.108618	 0.500000 
Sr7	 0.184058	 0.897767	 0.000000 
#                 ---end-of-data-block---
