data_STO [001]2x2x1
_cell_length_a               7.810000
_cell_length_b               7.810000
_cell_length_c               3.905000
_cell_angle_alpha          90.000000
_cell_angle_beta           90.000000
_cell_angle_gamma          90.000000
_symmetry_cell_setting          Triclinic
_symmetry_space_group_name_H-M 'P 1' 
loop_
_atom_site_label
_atom_site_fract_x
_atom_site_fract_y
_atom_site_fract_z
Ti1	 0.653264	 0.235381	 0.500000 
Sr2	 0.347078	 0.058604	 0.000000 
Ti3	 0.170301	 0.364791	 0.500000 
Sr4	 0.959450	 0.412158	 0.000000 
Ti5	 0.782674	 0.718344	 0.500000 
Sr6	 0.476487	 0.541567	 0.000000 
Ti7	 0.299711	 0.847753	 0.500000 
#                 ---end-of-data-block---
