data_STO [001]2x2x1
_cell_length_a               7.810000
_cell_length_b               7.810000
_cell_length_c               3.905000
_cell_angle_alpha          90.000000
_cell_angle_beta           90.000000
_cell_angle_gamma          90.000000
_symmetry_cell_setting          Triclinic
_symmetry_space_group_name_H-M 'P 1' 
loop_
_atom_site_label
_atom_site_fract_x
_atom_site_fract_y
_atom_site_fract_z
Sr1	 0.933679	 0.359577	 0.000000 
Ti2	 0.756902	 0.665764	 0.500000 
Sr3	 0.450716	 0.488987	 0.000000 
Ti4	 0.273939	 0.795173	 0.500000 
Ti5	 0.627492	 0.182801	 0.500000 
Sr6	 0.580125	 0.971950	 0.000000 
Ti7	 0.144529	 0.312210	 0.500000 
#                 ---end-of-data-block---
