data_Single Layer of MoS2nx 3 ny 1 nz 1
_cell_length_a               9.360000
_cell_length_b               9.360000
_cell_length_c               3.080000
_cell_angle_alpha          90.000000
_cell_angle_beta           90.000000
_cell_angle_gamma          90.000000
_symmetry_cell_setting          Triclinic
_symmetry_space_group_name_H-M 'P 1' 
loop_
_atom_site_label
_atom_site_fract_x
_atom_site_fract_y
_atom_site_fract_z
Mo1	 0.098434	 0.248310	 0.500000 
Mo2	 0.420409	 0.162037	 0.500000 
S3	 0.284326	 0.298120	 1.000000 
S4	 0.284326	 0.298120	 0.000000 
S5	 0.606302	 0.211847	 1.000000 
S6	 0.606302	 0.211847	 0.000000 
Mo7	 0.334136	 0.484013	 0.500000 
Mo8	 0.656111	 0.397739	 0.500000 
S9	 0.520029	 0.533822	 1.000000 
S10	 0.520029	 0.533822	 0.000000 
S11	 0.842004	 0.447549	 1.000000 
S12	 0.842004	 0.447549	 0.000000 
Mo13	 0.569838	 0.719715	 0.500000 
Mo14	 0.891814	 0.633442	 0.500000 
S15	 0.755731	 0.769525	 1.000000 
S16	 0.755731	 0.769525	 0.000000 
#                 ---end-of-data-block---
