data_A fcc partile with size of 8 A with 100/111/110 ratio of 1/0.973983/2
_cell_length_a               11.760000
_cell_length_b               11.760000
_cell_length_c               11.760000
_cell_angle_alpha          90.000000
_cell_angle_beta           90.000000
_cell_angle_gamma          90.000000
_symmetry_cell_setting          Triclinic
_symmetry_space_group_name_H-M 'P 1' 
loop_
_atom_site_label
_atom_site_fract_x
_atom_site_fract_y
_atom_site_fract_z
Pt1	 0.400709	 0.801657	 0.146447 
Pt2	 0.199525	 0.767139	 0.264298 
Pt3	 0.941150	 0.261217	 0.382149 
Pt4	 0.331674	 0.399288	 0.382149 
Pt5	 0.165007	 0.565955	 0.382149 
Pt6	 0.165007	 0.565955	 0.617851 
Pt7	 0.567376	 0.634991	 0.146447 
Pt8	 0.532858	 0.433806	 0.264298 
Pt9	 0.366192	 0.600473	 0.264298 
Pt10	 0.567376	 0.634991	 0.382149 
Pt11	 0.400709	 0.801657	 0.382149 
Pt12	 0.366192	 0.600473	 0.500000 
Pt13	 0.199525	 0.767139	 0.500000 
Pt14	 0.400709	 0.801657	 0.617851 
Pt15	 0.941150	 0.261217	 0.617851 
Pt16	 0.199525	 0.767139	 0.735702 
Pt17	 0.768561	 0.669508	 0.264298 
Pt18	 0.601894	 0.836175	 0.264298 
Pt19	 0.803078	 0.870693	 0.382149 
Pt20	 0.601894	 0.836175	 0.500000 
Pt21	 0.331674	 0.399288	 0.617851 
Pt22	 0.734043	 0.468324	 0.382149 
Pt23	 0.532858	 0.433806	 0.500000 
Pt24	 0.734043	 0.468324	 0.617851 
Pt25	 0.567376	 0.634991	 0.617851 
Pt26	 0.532858	 0.433806	 0.735702 
Pt27	 0.366192	 0.600473	 0.735702 
Pt28	 0.567376	 0.634991	 0.853553 
Pt29	 0.400709	 0.801657	 0.853553 
Pt30	 0.768561	 0.669508	 0.500000 
Pt31	 0.803078	 0.870693	 0.617851 
Pt32	 0.768561	 0.669508	 0.735702 
Pt33	 0.601894	 0.836175	 0.735702 
#                 ---end-of-data-block---
