data_A fcc partile with size of 8 A with 100/111/110 ratio of 1/0.893907/2
_cell_length_a               11.760000
_cell_length_b               11.760000
_cell_length_c               11.760000
_cell_angle_alpha          90.000000
_cell_angle_beta           90.000000
_cell_angle_gamma          90.000000
_symmetry_cell_setting          Triclinic
_symmetry_space_group_name_H-M 'P 1' 
loop_
_atom_site_label
_atom_site_fract_x
_atom_site_fract_y
_atom_site_fract_z
Pt1	 0.336448	 0.721839	 0.146447 
Pt2	 0.151053	 0.636427	 0.264298 
Pt3	 0.132324	 0.839691	 0.382149 
Pt4	 0.317719	 0.925103	 0.264298 
Pt5	 0.373905	 0.315313	 0.382149 
Pt6	 0.169781	 0.433164	 0.382149 
Pt7	 0.169781	 0.433164	 0.617851 
Pt8	 0.540572	 0.603988	 0.146447 
Pt9	 0.559301	 0.400725	 0.264298 
Pt10	 0.355177	 0.518576	 0.264298 
Pt11	 0.540572	 0.603988	 0.382149 
Pt12	 0.336448	 0.721839	 0.382149 
Pt13	 0.355177	 0.518576	 0.500000 
Pt14	 0.151053	 0.636427	 0.500000 
Pt15	 0.336448	 0.721839	 0.617851 
Pt16	 0.132324	 0.839691	 0.617851 
Pt17	 0.151053	 0.636427	 0.735702 
Pt18	 0.725968	 0.689400	 0.264298 
Pt19	 0.521843	 0.807251	 0.264298 
Pt20	 0.707239	 0.892663	 0.382149 
Pt21	 0.521843	 0.807251	 0.500000 
Pt22	 0.317719	 0.925103	 0.500000 
Pt23	 0.317719	 0.925103	 0.735702 
Pt24	 0.373905	 0.315313	 0.617851 
Pt25	 0.744696	 0.486137	 0.382149 
Pt26	 0.559301	 0.400725	 0.500000 
Pt27	 0.744696	 0.486137	 0.617851 
Pt28	 0.540572	 0.603988	 0.617851 
Pt29	 0.559301	 0.400725	 0.735702 
Pt30	 0.355177	 0.518576	 0.735702 
Pt31	 0.540572	 0.603988	 0.853553 
Pt32	 0.336448	 0.721839	 0.853553 
Pt33	 0.725968	 0.689400	 0.500000 
Pt34	 0.707239	 0.892663	 0.617851 
Pt35	 0.725968	 0.689400	 0.735702 
Pt36	 0.521843	 0.807251	 0.735702 
#                 ---end-of-data-block---
