data_A fcc partile with size of 8 A with 100/111/110 ratio of 1/0.921131/2
_cell_length_a               11.760000
_cell_length_b               11.760000
_cell_length_c               11.760000
_cell_angle_alpha          90.000000
_cell_angle_beta           90.000000
_cell_angle_gamma          90.000000
_symmetry_cell_setting          Triclinic
_symmetry_space_group_name_H-M 'P 1' 
loop_
_atom_site_label
_atom_site_fract_x
_atom_site_fract_y
_atom_site_fract_z
Pt1	 0.276199	 0.716419	 0.146447 
Pt2	 0.119227	 0.585934	 0.264298 
Pt3	 0.205500	 0.907909	 0.264298 
Pt4	 0.417597	 0.333440	 0.382149 
Pt5	 0.189926	 0.394444	 0.382149 
Pt6	 0.189926	 0.394444	 0.617851 
Pt7	 0.503870	 0.655415	 0.146447 
Pt8	 0.574569	 0.463925	 0.264298 
Pt9	 0.346898	 0.524929	 0.264298 
Pt10	 0.503870	 0.655415	 0.382149 
Pt11	 0.276199	 0.716419	 0.382149 
Pt12	 0.346898	 0.524929	 0.500000 
Pt13	 0.119227	 0.585934	 0.500000 
Pt14	 0.276199	 0.716419	 0.617851 
Pt15	 0.119227	 0.585934	 0.735702 
Pt16	 0.660842	 0.785900	 0.264298 
Pt17	 0.433171	 0.846905	 0.264298 
Pt18	 0.590143	 0.977390	 0.382149 
Pt19	 0.433171	 0.846905	 0.500000 
Pt20	 0.205500	 0.907909	 0.500000 
Pt21	 0.205500	 0.907909	 0.735702 
Pt22	 0.417597	 0.333440	 0.617851 
Pt23	 0.731541	 0.594411	 0.382149 
Pt24	 0.574569	 0.463925	 0.500000 
Pt25	 0.731541	 0.594411	 0.617851 
Pt26	 0.503870	 0.655415	 0.617851 
Pt27	 0.574569	 0.463925	 0.735702 
Pt28	 0.346898	 0.524929	 0.735702 
Pt29	 0.503870	 0.655415	 0.853553 
Pt30	 0.276199	 0.716419	 0.853553 
Pt31	 0.660842	 0.785900	 0.500000 
Pt32	 0.590143	 0.977390	 0.617851 
Pt33	 0.660842	 0.785900	 0.735702 
Pt34	 0.433171	 0.846905	 0.735702 
#                 ---end-of-data-block---
