data_A fcc partile with size of 8 A with 100/111/110 ratio of 1/0.982815/2
_cell_length_a               11.760000
_cell_length_b               11.760000
_cell_length_c               11.760000
_cell_angle_alpha          90.000000
_cell_angle_beta           90.000000
_cell_angle_gamma          90.000000
_symmetry_cell_setting          Triclinic
_symmetry_space_group_name_H-M 'P 1' 
loop_
_atom_site_label
_atom_site_fract_x
_atom_site_fract_y
_atom_site_fract_z
Pt1	 0.578657	 0.508695	 0.166667 
Pt2	 0.350986	 0.447691	 0.166667 
Pt3	 0.289982	 0.675361	 0.166667 
Pt4	 0.517653	 0.736366	 0.166667 
Pt5	 0.411991	 0.220020	 0.500000 
Pt6	 0.267653	 0.303353	 0.333333 
Pt7	 0.123315	 0.386686	 0.500000 
Pt8	 0.722995	 0.425361	 0.333333 
Pt9	 0.639662	 0.281024	 0.500000 
Pt10	 0.495324	 0.364357	 0.333333 
Pt11	 0.578657	 0.508695	 0.500000 
Pt12	 0.434320	 0.592028	 0.333333 
Pt13	 0.350986	 0.447691	 0.500000 
Pt14	 0.206649	 0.531024	 0.333333 
Pt15	 0.289982	 0.675361	 0.500000 
Pt16	 0.145645	 0.758695	 0.333333 
Pt17	 0.062311	 0.614357	 0.500000 
Pt18	 0.806328	 0.569699	 0.500000 
Pt19	 0.661991	 0.653032	 0.333333 
Pt20	 0.745324	 0.797370	 0.500000 
Pt21	 0.600986	 0.880703	 0.333333 
Pt22	 0.517653	 0.736366	 0.500000 
Pt23	 0.373315	 0.819699	 0.333333 
Pt24	 0.456649	 0.964037	 0.500000 
Pt25	 0.228978	 0.903032	 0.500000 
Pt26	 0.267653	 0.303353	 0.666667 
Pt27	 0.722995	 0.425361	 0.666667 
Pt28	 0.495324	 0.364357	 0.666667 
Pt29	 0.578657	 0.508695	 0.833333 
Pt30	 0.434320	 0.592028	 0.666667 
Pt31	 0.350986	 0.447691	 0.833333 
Pt32	 0.206649	 0.531024	 0.666667 
Pt33	 0.289982	 0.675361	 0.833333 
Pt34	 0.145645	 0.758695	 0.666667 
Pt35	 0.661991	 0.653032	 0.666667 
Pt36	 0.600986	 0.880703	 0.666667 
Pt37	 0.517653	 0.736366	 0.833333 
Pt38	 0.373315	 0.819699	 0.666667 
#                 ---end-of-data-block---
