data_Single Layer of MoS2nx 3 ny 2 nz 1
_cell_length_a               10.807997
_cell_length_b               10.807997
_cell_length_c               3.080000
_cell_angle_alpha          90.000000
_cell_angle_beta           90.000000
_cell_angle_gamma          90.000000
_symmetry_cell_setting          Triclinic
_symmetry_space_group_name_H-M 'P 1' 
loop_
_atom_site_label
_atom_site_fract_x
_atom_site_fract_y
_atom_site_fract_z
S1	 0.110050	 0.074644	 1.000000 
S2	 0.110050	 0.074644	 0.000000 
Mo3	 0.110050	 0.407978	 0.500000 
Mo4	 0.254388	 0.157978	 0.500000 
S5	 0.254388	 0.324644	 1.000000 
S6	 0.254388	 0.324644	 0.000000 
S7	 0.110050	 0.574644	 1.000000 
S8	 0.110050	 0.574644	 0.000000 
Mo9	 0.110050	 0.907978	 0.500000 
Mo10	 0.254388	 0.657978	 0.500000 
S11	 0.254388	 0.824644	 1.000000 
S12	 0.254388	 0.824644	 0.000000 
S13	 0.398726	 0.074644	 1.000000 
S14	 0.398726	 0.074644	 0.000000 
Mo15	 0.398726	 0.407978	 0.500000 
Mo16	 0.543063	 0.157978	 0.500000 
S17	 0.543063	 0.324644	 1.000000 
S18	 0.543063	 0.324644	 0.000000 
S19	 0.398726	 0.574644	 1.000000 
S20	 0.398726	 0.574644	 0.000000 
Mo21	 0.398726	 0.907978	 0.500000 
Mo22	 0.543063	 0.657978	 0.500000 
S23	 0.543063	 0.824644	 1.000000 
S24	 0.543063	 0.824644	 0.000000 
S25	 0.687401	 0.074644	 1.000000 
S26	 0.687401	 0.074644	 0.000000 
Mo27	 0.687401	 0.407978	 0.500000 
Mo28	 0.831738	 0.157978	 0.500000 
S29	 0.831738	 0.324644	 1.000000 
S30	 0.831738	 0.324644	 0.000000 
S31	 0.687401	 0.574644	 1.000000 
S32	 0.687401	 0.574644	 0.000000 
Mo33	 0.687401	 0.907978	 0.500000 
Mo34	 0.831738	 0.657978	 0.500000 
S35	 0.831738	 0.824644	 1.000000 
S36	 0.831738	 0.824644	 0.000000 
#                 ---end-of-data-block---
