data_Single Layer of MoS2nx 3 ny 2 nz 1
_cell_length_a               10.807997
_cell_length_b               10.807997
_cell_length_c               3.080000
_cell_angle_alpha          90.000000
_cell_angle_beta           90.000000
_cell_angle_gamma          90.000000
_symmetry_cell_setting          Triclinic
_symmetry_space_group_name_H-M 'P 1' 
loop_
_atom_site_label
_atom_site_fract_x
_atom_site_fract_y
_atom_site_fract_z
Mo1	 0.408956	 0.053213	 0.500000 
Mo2	 0.697631	 0.053213	 0.500000 
S3	 0.553294	 0.136546	 1.000000 
S4	 0.553294	 0.136546	 0.000000 
S5	 0.264619	 0.136546	 1.000000 
S6	 0.264619	 0.136546	 0.000000 
Mo7	 0.264619	 0.303213	 0.500000 
S8	 0.120281	 0.386546	 1.000000 
S9	 0.120281	 0.386546	 0.000000 
S10	 0.841969	 0.136546	 1.000000 
S11	 0.841969	 0.136546	 0.000000 
Mo12	 0.553294	 0.303213	 0.500000 
Mo13	 0.841969	 0.303213	 0.500000 
S14	 0.697631	 0.386546	 1.000000 
S15	 0.697631	 0.386546	 0.000000 
S16	 0.408956	 0.386546	 1.000000 
S17	 0.408956	 0.386546	 0.000000 
Mo18	 0.120281	 0.553213	 0.500000 
Mo19	 0.408956	 0.553213	 0.500000 
S20	 0.264619	 0.636546	 1.000000 
S21	 0.264619	 0.636546	 0.000000 
S22	 0.986307	 0.386546	 1.000000 
S23	 0.986307	 0.386546	 0.000000 
Mo24	 0.697631	 0.553213	 0.500000 
Mo25	 0.986307	 0.553213	 0.500000 
S26	 0.841969	 0.636546	 1.000000 
S27	 0.841969	 0.636546	 0.000000 
S28	 0.553294	 0.636546	 1.000000 
S29	 0.553294	 0.636546	 0.000000 
Mo30	 0.264619	 0.803213	 0.500000 
Mo31	 0.553294	 0.803213	 0.500000 
S32	 0.408956	 0.886546	 1.000000 
S33	 0.408956	 0.886546	 0.000000 
#                 ---end-of-data-block---
