data_TiO2_rutile [001] nx 2 ny 2 nz 1
_cell_length_a               9.188000
_cell_length_b               9.188000
_cell_length_c               2.959000
_cell_angle_alpha          90.000000
_cell_angle_beta           90.000000
_cell_angle_gamma          90.000000
_symmetry_cell_setting          Triclinic
_symmetry_space_group_name_H-M 'P 1' 
loop_
_atom_site_label
_atom_site_fract_x
_atom_site_fract_y
_atom_site_fract_z
Ti1	 0.294641	 0.253999	 0.000000 
Ti2	 0.471418	 0.560185	 0.500000 
Ti3	 0.165232	 0.736962	 0.000000 
Ti4	 0.600827	 0.077222	 0.500000 
Ti5	 0.777604	 0.383408	 0.000000 
Ti6	 0.954381	 0.689594	 0.500000 
Ti7	 0.648195	 0.866371	 0.000000 
#                 ---end-of-data-block---
