data_TiO2_rutile [001] nx 2 ny 2 nz 1
_cell_length_a               9.188000
_cell_length_b               9.188000
_cell_length_c               2.959000
_cell_angle_alpha          90.000000
_cell_angle_beta           90.000000
_cell_angle_gamma          90.000000
_symmetry_cell_setting          Triclinic
_symmetry_space_group_name_H-M 'P 1' 
loop_
_atom_site_label
_atom_site_fract_x
_atom_site_fract_y
_atom_site_fract_z
Ti1	 0.695712	 0.125135	 0.000000 
Ti2	 0.787218	 0.466641	 0.500000 
Ti3	 0.445712	 0.558147	 0.000000 
Ti4	 0.537218	 0.899654	 0.500000 
Ti5	 0.354206	 0.216641	 0.500000 
Ti6	 0.878725	 0.808147	 0.000000 
Ti7	 0.104206	 0.649654	 0.500000 
#                 ---end-of-data-block---
