data_TiO2_rutile [110] nx 3 ny 2 nz 1
_cell_length_a               12.993794
_cell_length_b               12.993794
_cell_length_c               6.496897
_cell_angle_alpha          90.000000
_cell_angle_beta           90.000000
_cell_angle_gamma          90.000000
_symmetry_cell_setting          Triclinic
_symmetry_space_group_name_H-M 'P 1' 
loop_
_atom_site_label
_atom_site_fract_x
_atom_site_fract_y
_atom_site_fract_z
Ti1	 0.391419	 0.136908	 0.000000 
Ti2	 0.214643	 0.313685	 0.500000 
Ti3	 0.295155	 0.394197	 0.000000 
Ti4	 0.471932	 0.217420	 0.500000 
Ti5	 0.037866	 0.490461	 0.000000 
Ti6	 0.648709	 0.040644	 0.000000 
Ti7	 0.118379	 0.570974	 0.500000 
Ti8	 0.552445	 0.297933	 0.000000 
Ti9	 0.375668	 0.474710	 0.500000 
Ti10	 0.456181	 0.555222	 0.000000 
Ti11	 0.632957	 0.378446	 0.500000 
Ti12	 0.198891	 0.651486	 0.000000 
Ti13	 0.729221	 0.121156	 0.500000 
Ti14	 0.809734	 0.201669	 0.000000 
Ti15	 0.279404	 0.731999	 0.500000 
Ti16	 0.713470	 0.458958	 0.000000 
Ti17	 0.536693	 0.635735	 0.500000 
Ti18	 0.617206	 0.716248	 0.000000 
Ti19	 0.793983	 0.539471	 0.500000 
Ti20	 0.359917	 0.812512	 0.000000 
Ti21	 0.890247	 0.282182	 0.500000 
Ti22	 0.970759	 0.362694	 0.000000 
Ti23	 0.440429	 0.893024	 0.500000 
#                 ---end-of-data-block---
