data_Si [110] nx 3 ny 2 nz 1
_cell_length_a               11.518769
_cell_length_b               11.518769
_cell_length_c               3.839590
_cell_angle_alpha          90.000000
_cell_angle_beta           90.000000
_cell_angle_gamma          90.000000
_symmetry_cell_setting          Triclinic
_symmetry_space_group_name_H-M 'P 1' 
loop_
_atom_site_label
_atom_site_fract_x
_atom_site_fract_y
_atom_site_fract_z
Si1	 0.367075	 0.047303	 0.000000 
Si2	 0.234926	 0.415154	 0.000000 
Si3	 0.283742	 0.130636	 0.500000 
Si4	 0.318260	 0.331820	 0.500000 
Si5	 0.033742	 0.380636	 0.000000 
Si6	 0.568260	 0.081820	 0.000000 
Si7	 0.602777	 0.283005	 0.000000 
Si8	 0.470629	 0.650856	 0.000000 
Si9	 0.519444	 0.366338	 0.500000 
Si10	 0.553962	 0.567523	 0.500000 
Si11	 0.269444	 0.616338	 0.000000 
Si12	 0.803962	 0.317523	 0.000000 
Si13	 0.186111	 0.699672	 0.500000 
Si14	 0.887295	 0.234189	 0.500000 
Si15	 0.838480	 0.518707	 0.000000 
Si16	 0.706331	 0.886558	 0.000000 
Si17	 0.755146	 0.602041	 0.500000 
Si18	 0.789664	 0.803225	 0.500000 
Si19	 0.505146	 0.852041	 0.000000 
Si20	 0.421813	 0.935374	 0.500000 
#                 ---end-of-data-block---
