data_STO [001]3x3x1
_cell_length_a               11.715000
_cell_length_b               11.715000
_cell_length_c               3.905000
_cell_angle_alpha          90.000000
_cell_angle_beta           90.000000
_cell_angle_gamma          90.000000
_symmetry_cell_setting          Triclinic
_symmetry_space_group_name_H-M 'P 1' 
loop_
_atom_site_label
_atom_site_fract_x
_atom_site_fract_y
_atom_site_fract_z
Sr1	 0.574255	 0.052051	 0.000000 
Ti2	 0.456403	 0.256175	 0.500000 
Sr3	 0.252279	 0.138324	 0.000000 
Ti4	 0.134428	 0.342448	 0.500000 
Ti5	 0.778379	 0.169902	 0.500000 
Sr6	 0.660528	 0.374027	 0.000000 
Ti7	 0.542676	 0.578151	 0.500000 
Sr8	 0.338552	 0.460300	 0.000000 
Ti9	 0.220701	 0.664424	 0.500000 
Sr10	 0.016577	 0.546573	 0.000000 
Ti11	 0.864652	 0.491878	 0.500000 
Sr12	 0.746801	 0.696002	 0.000000 
Ti13	 0.628949	 0.900126	 0.500000 
Sr14	 0.424825	 0.782275	 0.000000 
Ti15	 0.306974	 0.986399	 0.500000 
Sr16	 0.102850	 0.868548	 0.000000 
Ti17	 0.950925	 0.813853	 0.500000 
#                 ---end-of-data-block---
