data_Pt structure along [001] nx 2 ny 3 nz 1
_cell_length_a               11.715000
_cell_length_b               11.715000
_cell_length_c               5.543717
_cell_angle_alpha          90.000000
_cell_angle_beta           90.000000
_cell_angle_gamma          90.000000
_symmetry_cell_setting          Triclinic
_symmetry_space_group_name_H-M 'P 1' 
loop_
_atom_site_label
_atom_site_fract_x
_atom_site_fract_y
_atom_site_fract_z
Ti1	 0.155873	 0.073170	 0.000000 
Ti2	 0.383544	 0.134175	 0.500000 
Ti3	 0.069600	 0.395146	 0.000000 
Sr4	 0.340408	 0.295162	 0.000000 
Ti5	 0.297271	 0.456150	 0.500000 
Sr6	 0.112737	 0.234158	 0.500000 
Sr7	 0.254135	 0.617137	 0.000000 
Ti8	 0.210998	 0.778125	 0.500000 
Sr9	 0.026464	 0.556133	 0.500000 
Ti10	 0.611215	 0.195179	 0.000000 
Sr11	 0.882023	 0.095195	 0.000000 
Ti12	 0.838886	 0.256183	 0.500000 
Sr13	 0.654352	 0.034191	 0.500000 
Ti14	 0.524942	 0.517154	 0.000000 
Sr15	 0.795749	 0.417171	 0.000000 
Ti16	 0.752613	 0.578158	 0.500000 
Sr17	 0.568079	 0.356166	 0.500000 
Ti18	 0.438669	 0.839129	 0.000000 
Sr19	 0.709476	 0.739146	 0.000000 
Ti20	 0.666340	 0.900134	 0.500000 
Sr21	 0.481806	 0.678142	 0.500000 
#                 ---end-of-data-block---
