data_Pt structure along [001] nx 2 ny 3 nz 1
_cell_length_a               11.715000
_cell_length_b               11.715000
_cell_length_c               5.543717
_cell_angle_alpha          90.000000
_cell_angle_beta           90.000000
_cell_angle_gamma          90.000000
_symmetry_cell_setting          Triclinic
_symmetry_space_group_name_H-M 'P 1' 
loop_
_atom_site_label
_atom_site_fract_x
_atom_site_fract_y
_atom_site_fract_z
Ti1	 0.623949	 0.290351	 0.000000 
Sr2	 0.845940	 0.474885	 0.000000 
Ti3	 0.684953	 0.518022	 0.500000 
Sr4	 0.784936	 0.247214	 0.500000 
Ti5	 0.301973	 0.376624	 0.000000 
Sr6	 0.523965	 0.561158	 0.000000 
Ti7	 0.362978	 0.604295	 0.500000 
Sr8	 0.462961	 0.333487	 0.500000 
Sr9	 0.201990	 0.647431	 0.000000 
Ti10	 0.041002	 0.690568	 0.500000 
Sr11	 0.140986	 0.419760	 0.500000 
Ti12	 0.745957	 0.745692	 0.000000 
Sr13	 0.723932	 0.019543	 0.000000 
Ti14	 0.562944	 0.062680	 0.500000 
Sr15	 0.906945	 0.702556	 0.500000 
Ti16	 0.423982	 0.831965	 0.000000 
Sr17	 0.401957	 0.105816	 0.000000 
Ti18	 0.240969	 0.148953	 0.500000 
Sr19	 0.584969	 0.788829	 0.500000 
Ti20	 0.102006	 0.918238	 0.000000 
Sr21	 0.079981	 0.192089	 0.000000 
Sr22	 0.262994	 0.875102	 0.500000 
#                 ---end-of-data-block---
