data_A fcc partile with size of 8 A with 100/111/110 ratio of 1/0.813383/2
_cell_length_a               11.760000
_cell_length_b               11.760000
_cell_length_c               11.760000
_cell_angle_alpha          90.000000
_cell_angle_beta           90.000000
_cell_angle_gamma          90.000000
_symmetry_cell_setting          Triclinic
_symmetry_space_group_name_H-M 'P 1' 
loop_
_atom_site_label
_atom_site_fract_x
_atom_site_fract_y
_atom_site_fract_z
Pt1	 0.514114	 0.500570	 0.500000 
Pt2	 0.369776	 0.583903	 0.333333 
Pt3	 0.286443	 0.439565	 0.500000 
Pt4	 0.225439	 0.667236	 0.500000 
Pt5	 0.453109	 0.728240	 0.500000 
Pt6	 0.369776	 0.583903	 0.666667 
#                 ---end-of-data-block---
