data_A fcc partile with size of 8 A with 100/111/110 ratio of 1/0.818709/2
_cell_length_a               11.760000
_cell_length_b               11.760000
_cell_length_c               11.760000
_cell_angle_alpha          90.000000
_cell_angle_beta           90.000000
_cell_angle_gamma          90.000000
_symmetry_cell_setting          Triclinic
_symmetry_space_group_name_H-M 'P 1' 
loop_
_atom_site_label
_atom_site_fract_x
_atom_site_fract_y
_atom_site_fract_z
Pt1	 0.638518	 0.629034	 0.500000 
Pt2	 0.477530	 0.672171	 0.333333 
Pt3	 0.434394	 0.511183	 0.500000 
Pt4	 0.316543	 0.715307	 0.500000 
Pt5	 0.520667	 0.833158	 0.500000 
Pt6	 0.477530	 0.672171	 0.666667 
#                 ---end-of-data-block---
