data_Pt structure along [001] nx 3 ny 3 nz 1
_cell_length_a               11.760000
_cell_length_b               11.760000
_cell_length_c               3.920000
_cell_angle_alpha          90.000000
_cell_angle_beta           90.000000
_cell_angle_gamma          90.000000
_symmetry_cell_setting          Triclinic
_symmetry_space_group_name_H-M 'P 1' 
loop_
_atom_site_label
_atom_site_fract_x
_atom_site_fract_y
_atom_site_fract_z
Pt1	 0.550125	 0.209577	 0.000000 
Pt2	 0.489121	 0.437248	 0.000000 
Pt3	 0.633459	 0.353914	 0.500000 
Pt4	 0.405788	 0.292910	 0.500000 
Pt5	 0.261450	 0.376243	 0.000000 
Pt6	 0.200446	 0.603914	 0.000000 
Pt7	 0.344784	 0.520581	 0.500000 
Pt8	 0.117113	 0.459577	 0.500000 
Pt9	 0.777796	 0.270581	 0.000000 
Pt10	 0.056108	 0.687248	 0.500000 
Pt11	 0.694463	 0.126243	 0.500000 
Pt12	 0.716792	 0.498252	 0.000000 
Pt13	 0.655788	 0.725923	 0.000000 
Pt14	 0.800125	 0.642590	 0.500000 
Pt15	 0.572454	 0.581585	 0.500000 
Pt16	 0.428117	 0.664919	 0.000000 
Pt17	 0.367113	 0.892590	 0.000000 
Pt18	 0.511450	 0.809256	 0.500000 
Pt19	 0.283779	 0.748252	 0.500000 
Pt20	 0.139442	 0.831585	 0.000000 
Pt21	 0.944463	 0.559256	 0.000000 
Pt22	 0.222775	 0.975923	 0.500000 
Pt23	 0.861130	 0.414919	 0.500000 
Pt24	 0.883459	 0.786927	 0.000000 
Pt25	 0.322454	 0.148573	 0.000000 
Pt26	 0.466792	 0.065239	 0.500000 
Pt27	 0.739121	 0.870260	 0.500000 
Pt28	 0.594784	 0.953594	 0.000000 
Pt29	 0.033779	 0.315239	 0.000000 
Pt30	 0.178117	 0.231906	 0.500000 
#                 ---end-of-data-block---
