data_TiO2_rutile [001] nx 2 ny 2 nz 1
_cell_length_a               9.188000
_cell_length_b               9.188000
_cell_length_c               2.959000
_cell_angle_alpha          90.000000
_cell_angle_beta           90.000000
_cell_angle_gamma          90.000000
_symmetry_cell_setting          Triclinic
_symmetry_space_group_name_H-M 'P 1' 
loop_
_atom_site_label
_atom_site_fract_x
_atom_site_fract_y
_atom_site_fract_z
Ti1	 0.425671	 0.403999	 0.000000 
Ti2	 0.602448	 0.710185	 0.500000 
Ti3	 0.296262	 0.886962	 0.000000 
Ti4	 0.731857	 0.227222	 0.500000 
Ti5	 0.908634	 0.533409	 0.000000 
Ti6	 0.119485	 0.580776	 0.500000 
Ti7	 0.248894	 0.097813	 0.500000 
#                 ---end-of-data-block---
