data_TiO2_rutile [001] nx 2 ny 2 nz 1
_cell_length_a               9.188000
_cell_length_b               9.188000
_cell_length_c               2.959000
_cell_angle_alpha          90.000000
_cell_angle_beta           90.000000
_cell_angle_gamma          90.000000
_symmetry_cell_setting          Triclinic
_symmetry_space_group_name_H-M 'P 1' 
loop_
_atom_site_label
_atom_site_fract_x
_atom_site_fract_y
_atom_site_fract_z
Ti1	 0.353720	 0.152805	 0.000000 
Ti2	 0.530497	 0.458991	 0.500000 
Ti3	 0.224311	 0.635768	 0.000000 
Ti4	 0.401087	 0.941954	 0.500000 
Ti5	 0.836683	 0.282214	 0.000000 
Ti6	 0.047534	 0.329581	 0.500000 
Ti7	 0.707273	 0.765177	 0.000000 
#                 ---end-of-data-block---
