data_TiO2_rutile [001] nx 2 ny 2 nz 1
_cell_length_a               9.188000
_cell_length_b               9.188000
_cell_length_c               2.959000
_cell_angle_alpha          90.000000
_cell_angle_beta           90.000000
_cell_angle_gamma          90.000000
_symmetry_cell_setting          Triclinic
_symmetry_space_group_name_H-M 'P 1' 
loop_
_atom_site_label
_atom_site_fract_x
_atom_site_fract_y
_atom_site_fract_z
Ti1	 0.211705	 0.250447	 0.000000 
Ti2	 0.303211	 0.591954	 0.500000 
Ti3	 0.553211	 0.158941	 0.500000 
Ti4	 0.644717	 0.500447	 0.000000 
Ti5	 0.736224	 0.841954	 0.500000 
Ti6	 0.394717	 0.933460	 0.000000 
Ti7	 0.986224	 0.408941	 0.500000 
#                 ---end-of-data-block---
