data_TiO2_rutile [001] nx 2 ny 2 nz 1
_cell_length_a               9.188000
_cell_length_b               9.188000
_cell_length_c               2.959000
_cell_angle_alpha          90.000000
_cell_angle_beta           90.000000
_cell_angle_gamma          90.000000
_symmetry_cell_setting          Triclinic
_symmetry_space_group_name_H-M 'P 1' 
loop_
_atom_site_label
_atom_site_fract_x
_atom_site_fract_y
_atom_site_fract_z
Ti1	 0.311924	 0.006116	 0.000000 
Ti2	 0.403431	 0.347622	 0.500000 
Ti3	 0.061924	 0.439128	 0.000000 
Ti4	 0.153431	 0.780635	 0.500000 
Ti5	 0.744937	 0.256116	 0.000000 
Ti6	 0.836443	 0.597622	 0.500000 
Ti7	 0.494937	 0.689128	 0.000000 
#                 ---end-of-data-block---
