data_TiO2_rutile [001] nx 2 ny 2 nz 1
_cell_length_a               9.188000
_cell_length_b               9.188000
_cell_length_c               2.959000
_cell_angle_alpha          90.000000
_cell_angle_beta           90.000000
_cell_angle_gamma          90.000000
_symmetry_cell_setting          Triclinic
_symmetry_space_group_name_H-M 'P 1' 
loop_
_atom_site_label
_atom_site_fract_x
_atom_site_fract_y
_atom_site_fract_z
Ti1	 0.566511	 0.320859	 0.500000 
Ti2	 0.225005	 0.229352	 0.000000 
Ti3	 0.133498	 0.570859	 0.500000 
Ti4	 0.908017	 0.412365	 0.000000 
Ti5	 0.816511	 0.753871	 0.500000 
Ti6	 0.475005	 0.662365	 0.000000 
#                 ---end-of-data-block---
