data_TiO2_rutile [001] nx 2 ny 2 nz 1
_cell_length_a               9.188000
_cell_length_b               9.188000
_cell_length_c               2.959000
_cell_angle_alpha          90.000000
_cell_angle_beta           90.000000
_cell_angle_gamma          90.000000
_symmetry_cell_setting          Triclinic
_symmetry_space_group_name_H-M 'P 1' 
loop_
_atom_site_label
_atom_site_fract_x
_atom_site_fract_y
_atom_site_fract_z
Ti1	 0.542329	 0.060986	 0.000000 
Ti2	 0.450822	 0.402492	 0.500000 
Ti3	 0.109316	 0.310986	 0.000000 
Ti4	 0.017810	 0.652492	 0.500000 
Ti5	 0.792329	 0.493998	 0.000000 
Ti6	 0.700822	 0.835505	 0.500000 
Ti7	 0.359316	 0.743998	 0.000000 
#                 ---end-of-data-block---
