data_TiO2_rutile [001] nx 2 ny 2 nz 1
_cell_length_a               9.188000
_cell_length_b               9.188000
_cell_length_c               2.959000
_cell_angle_alpha          90.000000
_cell_angle_beta           90.000000
_cell_angle_gamma          90.000000
_symmetry_cell_setting          Triclinic
_symmetry_space_group_name_H-M 'P 1' 
loop_
_atom_site_label
_atom_site_fract_x
_atom_site_fract_y
_atom_site_fract_z
Ti1	 0.449929	 0.282260	 0.000000 
Ti2	 0.358423	 0.623767	 0.500000 
Ti3	 0.016916	 0.532260	 0.000000 
Ti4	 0.791435	 0.373767	 0.500000 
Ti5	 0.699929	 0.715273	 0.000000 
Ti6	 0.108423	 0.190754	 0.500000 
Ti7	 0.266916	 0.965273	 0.000000 
#                 ---end-of-data-block---
