data_TiO2_rutile [001] nx 2 ny 2 nz 1
_cell_length_a               9.188000
_cell_length_b               9.188000
_cell_length_c               2.959000
_cell_angle_alpha          90.000000
_cell_angle_beta           90.000000
_cell_angle_gamma          90.000000
_symmetry_cell_setting          Triclinic
_symmetry_space_group_name_H-M 'P 1' 
loop_
_atom_site_label
_atom_site_fract_x
_atom_site_fract_y
_atom_site_fract_z
Ti1	 0.934203	 0.368288	 0.000000 
Ti2	 0.757426	 0.674474	 0.500000 
Ti3	 0.451240	 0.497697	 0.000000 
Ti4	 0.274463	 0.803884	 0.500000 
Ti5	 0.628016	 0.191511	 0.500000 
Ti6	 0.580649	 0.980660	 0.000000 
Ti7	 0.145053	 0.320921	 0.500000 
#                 ---end-of-data-block---
