data_Pt structure along [001] nx 2 ny 3 nz 1
_cell_length_a               11.715000
_cell_length_b               11.715000
_cell_length_c               5.543717
_cell_angle_alpha          90.000000
_cell_angle_beta           90.000000
_cell_angle_gamma          90.000000
_symmetry_cell_setting          Triclinic
_symmetry_space_group_name_H-M 'P 1' 
loop_
_atom_site_label
_atom_site_fract_x
_atom_site_fract_y
_atom_site_fract_z
Ti1	 0.213448	 0.091140	 0.000000 
Ti2	 0.441119	 0.152144	 0.500000 
Ti3	 0.127175	 0.413115	 0.000000 
Sr4	 0.397983	 0.313132	 0.000000 
Ti5	 0.354846	 0.474120	 0.500000 
Sr6	 0.170312	 0.252128	 0.500000 
Ti7	 0.040902	 0.735091	 0.000000 
Sr8	 0.311710	 0.635107	 0.000000 
Ti9	 0.268573	 0.796095	 0.500000 
Sr10	 0.084039	 0.574103	 0.500000 
Ti11	 0.668790	 0.213149	 0.000000 
Sr12	 0.939597	 0.113165	 0.000000 
Ti13	 0.896461	 0.274153	 0.500000 
Sr14	 0.711927	 0.052161	 0.500000 
Ti15	 0.582517	 0.535124	 0.000000 
Sr16	 0.853324	 0.435140	 0.000000 
Ti17	 0.810188	 0.596128	 0.500000 
Sr18	 0.625654	 0.374136	 0.500000 
Ti19	 0.496244	 0.857099	 0.000000 
Sr20	 0.767051	 0.757116	 0.000000 
Ti21	 0.723915	 0.918103	 0.500000 
Sr22	 0.539381	 0.696112	 0.500000 
#                 ---end-of-data-block---
