data_Pt structure along [001] nx 4 ny 3 nz 1
_cell_length_a               11.760000
_cell_length_b               11.760000
_cell_length_c               2.771859
_cell_angle_alpha          90.000000
_cell_angle_beta           90.000000
_cell_angle_gamma          90.000000
_symmetry_cell_setting          Triclinic
_symmetry_space_group_name_H-M 'P 1' 
loop_
_atom_site_label
_atom_site_fract_x
_atom_site_fract_y
_atom_site_fract_z
Co1	 0.243567	 0.107149	 0.000000 
Co2	 0.314266	 0.298639	 0.500000 
Co3	 0.157294	 0.429125	 0.000000 
Co4	 0.227993	 0.620614	 0.500000 
Co5	 0.071021	 0.751100	 0.000000 
Co6	 0.471238	 0.168154	 0.000000 
Co7	 0.541937	 0.359643	 0.500000 
Co8	 0.384965	 0.490129	 0.000000 
Co9	 0.455664	 0.681619	 0.500000 
Co10	 0.298692	 0.812104	 0.000000 
Co11	 0.628210	 0.037668	 0.500000 
Co12	 0.698909	 0.229158	 0.000000 
Co13	 0.769608	 0.420648	 0.500000 
Co14	 0.612636	 0.551133	 0.000000 
Co15	 0.683335	 0.742623	 0.500000 
Co16	 0.526363	 0.873108	 0.000000 
Co17	 0.855881	 0.098672	 0.500000 
Co18	 0.926580	 0.290162	 0.000000 
Co19	 0.086595	 0.237635	 0.500000 
Co20	 0.840307	 0.612137	 0.000000 
Co21	 0.000322	 0.559610	 0.500000 
Co22	 0.754034	 0.934113	 0.000000 
#                 ---end-of-data-block---
