data_TiO2_rutile [001] nx 2 ny 2 nz 1
_cell_length_a               9.188000
_cell_length_b               9.188000
_cell_length_c               2.959000
_cell_angle_alpha          90.000000
_cell_angle_beta           90.000000
_cell_angle_gamma          90.000000
_symmetry_cell_setting          Triclinic
_symmetry_space_group_name_H-M 'P 1' 
loop_
_atom_site_label
_atom_site_fract_x
_atom_site_fract_y
_atom_site_fract_z
Ti1	 0.264503	 0.186090	 0.000000 
Ti2	 0.441280	 0.492276	 0.500000 
Ti3	 0.135094	 0.669053	 0.000000 
Ti4	 0.570690	 0.009313	 0.500000 
Ti5	 0.747466	 0.315499	 0.000000 
Ti6	 0.924243	 0.621686	 0.500000 
Ti7	 0.618057	 0.798462	 0.000000 
#                 ---end-of-data-block---
