data_TiO2_rutile [001] nx 2 ny 2 nz 1
_cell_length_a               9.188000
_cell_length_b               9.188000
_cell_length_c               2.959000
_cell_angle_alpha          90.000000
_cell_angle_beta           90.000000
_cell_angle_gamma          90.000000
_symmetry_cell_setting          Triclinic
_symmetry_space_group_name_H-M 'P 1' 
loop_
_atom_site_label
_atom_site_fract_x
_atom_site_fract_y
_atom_site_fract_z
Ti1	 0.354727	 0.393019	 0.000000 
Ti2	 0.531504	 0.699205	 0.500000 
Ti3	 0.225318	 0.875981	 0.000000 
Ti4	 0.660914	 0.216242	 0.500000 
Ti5	 0.837690	 0.522428	 0.000000 
Ti6	 0.048541	 0.569795	 0.500000 
Ti7	 0.177951	 0.086832	 0.500000 
#                 ---end-of-data-block---
