data_TiO2_rutile [001] nx 2 ny 2 nz 1
_cell_length_a               9.188000
_cell_length_b               9.188000
_cell_length_c               2.959000
_cell_angle_alpha          90.000000
_cell_angle_beta           90.000000
_cell_angle_gamma          90.000000
_symmetry_cell_setting          Triclinic
_symmetry_space_group_name_H-M 'P 1' 
loop_
_atom_site_label
_atom_site_fract_x
_atom_site_fract_y
_atom_site_fract_z
Ti1	 0.497017	 0.461845	 0.000000 
Ti2	 0.673794	 0.768031	 0.500000 
Ti3	 0.367608	 0.944808	 0.000000 
Ti4	 0.803203	 0.285069	 0.500000 
Ti5	 0.979980	 0.591255	 0.000000 
Ti6	 0.190831	 0.638622	 0.500000 
Ti7	 0.320241	 0.155659	 0.500000 
#                 ---end-of-data-block---
