data_TiO2_rutile [001] nx 2 ny 2 nz 1
_cell_length_a               9.188000
_cell_length_b               9.188000
_cell_length_c               2.959000
_cell_angle_alpha          90.000000
_cell_angle_beta           90.000000
_cell_angle_gamma          90.000000
_symmetry_cell_setting          Triclinic
_symmetry_space_group_name_H-M 'P 1' 
loop_
_atom_site_label
_atom_site_fract_x
_atom_site_fract_y
_atom_site_fract_z
Ti1	 0.642594	 0.335967	 0.500000 
Ti2	 0.301088	 0.427473	 0.000000 
Ti3	 0.392594	 0.768979	 0.500000 
Ti4	 0.984101	 0.244460	 0.000000 
Ti5	 0.209582	 0.085967	 0.500000 
Ti6	 0.734101	 0.677473	 0.000000 
#                 ---end-of-data-block---
