data_TiO2_rutile [001] nx 2 ny 2 nz 1
_cell_length_a               9.188000
_cell_length_b               9.188000
_cell_length_c               2.959000
_cell_angle_alpha          90.000000
_cell_angle_beta           90.000000
_cell_angle_gamma          90.000000
_symmetry_cell_setting          Triclinic
_symmetry_space_group_name_H-M 'P 1' 
loop_
_atom_site_label
_atom_site_fract_x
_atom_site_fract_y
_atom_site_fract_z
Ti1	 0.164473	 0.121669	 0.000000 
Ti2	 0.255979	 0.463176	 0.500000 
Ti3	 0.505979	 0.030163	 0.500000 
Ti4	 0.597485	 0.371669	 0.000000 
Ti5	 0.688992	 0.713176	 0.500000 
Ti6	 0.347485	 0.804682	 0.000000 
Ti7	 0.938992	 0.280163	 0.500000 
#                 ---end-of-data-block---
