data_TiO2_rutile [001] nx 2 ny 2 nz 1
_cell_length_a               9.188000
_cell_length_b               9.188000
_cell_length_c               2.959000
_cell_angle_alpha          90.000000
_cell_angle_beta           90.000000
_cell_angle_gamma          90.000000
_symmetry_cell_setting          Triclinic
_symmetry_space_group_name_H-M 'P 1' 
loop_
_atom_site_label
_atom_site_fract_x
_atom_site_fract_y
_atom_site_fract_z
Ti1	 0.777673	 0.326654	 0.000000 
Ti2	 0.600896	 0.632840	 0.500000 
Ti3	 0.294710	 0.456063	 0.000000 
Ti4	 0.117933	 0.762249	 0.500000 
Ti5	 0.907082	 0.809616	 0.000000 
Ti6	 0.471487	 0.149877	 0.500000 
Ti7	 0.424120	 0.939026	 0.000000 
#                 ---end-of-data-block---
