data_TiO2_rutile [001] nx 2 ny 2 nz 1
_cell_length_a               9.188000
_cell_length_b               9.188000
_cell_length_c               2.959000
_cell_angle_alpha          90.000000
_cell_angle_beta           90.000000
_cell_angle_gamma          90.000000
_symmetry_cell_setting          Triclinic
_symmetry_space_group_name_H-M 'P 1' 
loop_
_atom_site_label
_atom_site_fract_x
_atom_site_fract_y
_atom_site_fract_z
Ti1	 0.700732	 0.161477	 0.000000 
Ti2	 0.523955	 0.467663	 0.500000 
Ti3	 0.217769	 0.290886	 0.000000 
Ti4	 0.040992	 0.597073	 0.500000 
Ti5	 0.830141	 0.644440	 0.000000 
Ti6	 0.653365	 0.950626	 0.500000 
Ti7	 0.347178	 0.773849	 0.000000 
#                 ---end-of-data-block---
