data_TiO2_rutile [100] nx 3 ny 2 nz 1
_cell_length_a               9.188000
_cell_length_b               9.188000
_cell_length_c               4.594000
_cell_angle_alpha          90.000000
_cell_angle_beta           90.000000
_cell_angle_gamma          90.000000
_symmetry_cell_setting          Triclinic
_symmetry_space_group_name_H-M 'P 1' 
loop_
_atom_site_label
_atom_site_fract_x
_atom_site_fract_y
_atom_site_fract_z
Ti1	 0.218163	 0.503728	 0.500000 
Ti2	 0.354157	 0.239276	 0.000000 
Ti3	 0.651176	 0.253728	 0.500000 
Ti4	 0.082169	 0.768180	 0.000000 
Ti5	 0.379188	 0.782632	 0.500000 
Ti6	 0.515182	 0.518180	 0.000000 
Ti7	 0.812201	 0.532632	 0.500000 
Ti8	 0.057138	 0.224824	 0.500000 
Ti9	 0.676207	 0.797084	 0.000000 
#                 ---end-of-data-block---
