data_STO [001]3x3x1
_cell_length_a               11.715000
_cell_length_b               11.715000
_cell_length_c               3.905000
_cell_angle_alpha          90.000000
_cell_angle_beta           90.000000
_cell_angle_gamma          90.000000
_symmetry_cell_setting          Triclinic
_symmetry_space_group_name_H-M 'P 1' 
loop_
_atom_site_label
_atom_site_fract_x
_atom_site_fract_y
_atom_site_fract_z
Sr1	 0.659558	 0.243524	 0.000000 
Ti2	 0.541707	 0.447648	 0.500000 
Sr3	 0.337583	 0.329797	 0.000000 
Ti4	 0.219732	 0.533921	 0.500000 
Sr5	 0.015608	 0.416070	 0.000000 
Ti6	 0.863682	 0.361375	 0.500000 
Sr7	 0.745831	 0.565500	 0.000000 
Ti8	 0.627980	 0.769624	 0.500000 
Sr9	 0.423856	 0.651773	 0.000000 
Ti10	 0.306005	 0.855897	 0.500000 
Sr11	 0.101881	 0.738046	 0.000000 
Ti12	 0.949955	 0.683351	 0.500000 
Sr13	 0.832104	 0.887475	 0.000000 
Ti14	 0.455434	 0.125673	 0.500000 
Sr15	 0.510129	 0.973748	 0.000000 
Ti16	 0.133459	 0.211946	 0.500000 
Ti17	 0.777409	 0.039400	 0.500000 
#                 ---end-of-data-block---
