data_Pt structure along [001] nx 2 ny 3 nz 1
_cell_length_a               11.715000
_cell_length_b               11.715000
_cell_length_c               5.543717
_cell_angle_alpha          90.000000
_cell_angle_beta           90.000000
_cell_angle_gamma          90.000000
_symmetry_cell_setting          Triclinic
_symmetry_space_group_name_H-M 'P 1' 
loop_
_atom_site_label
_atom_site_fract_x
_atom_site_fract_y
_atom_site_fract_z
Ti1	 0.150979	 0.156930	 0.000000 
Sr2	 0.421786	 0.056947	 0.000000 
Ti3	 0.378650	 0.217934	 0.500000 
Ti4	 0.064706	 0.478905	 0.000000 
Sr5	 0.335513	 0.378922	 0.000000 
Ti6	 0.292377	 0.539910	 0.500000 
Sr7	 0.107843	 0.317918	 0.500000 
Sr8	 0.249240	 0.700897	 0.000000 
Ti9	 0.206104	 0.861885	 0.500000 
Sr10	 0.021570	 0.639893	 0.500000 
Ti11	 0.606321	 0.278939	 0.000000 
Sr12	 0.877128	 0.178955	 0.000000 
Ti13	 0.833992	 0.339943	 0.500000 
Sr14	 0.649457	 0.117951	 0.500000 
Ti15	 0.520048	 0.600914	 0.000000 
Sr16	 0.790855	 0.500931	 0.000000 
Ti17	 0.747719	 0.661918	 0.500000 
Sr18	 0.563184	 0.439926	 0.500000 
Ti19	 0.433775	 0.922889	 0.000000 
Sr20	 0.704582	 0.822906	 0.000000 
Ti21	 0.661446	 0.983893	 0.500000 
Sr22	 0.476911	 0.761902	 0.500000 
#                 ---end-of-data-block---
