data_Pt structure along [001] nx 2 ny 3 nz 1
_cell_length_a               11.715000
_cell_length_b               11.715000
_cell_length_c               5.543717
_cell_angle_alpha          90.000000
_cell_angle_beta           90.000000
_cell_angle_gamma          90.000000
_symmetry_cell_setting          Triclinic
_symmetry_space_group_name_H-M 'P 1' 
loop_
_atom_site_label
_atom_site_fract_x
_atom_site_fract_y
_atom_site_fract_z
Ti1	 0.419081	 0.060254	 0.000000 
Sr2	 0.681270	 0.181045	 0.000000 
Ti3	 0.536932	 0.264378	 0.500000 
Ti4	 0.130406	 0.226920	 0.000000 
Sr5	 0.392595	 0.347711	 0.000000 
Ti6	 0.248257	 0.431045	 0.500000 
Sr7	 0.274743	 0.143587	 0.500000 
Sr8	 0.103919	 0.514378	 0.000000 
Ti9	 0.825607	 0.097711	 0.500000 
Ti10	 0.654783	 0.468502	 0.000000 
Sr11	 0.916972	 0.589293	 0.000000 
Ti12	 0.772634	 0.672626	 0.500000 
Sr13	 0.799121	 0.385169	 0.500000 
Ti14	 0.366108	 0.635169	 0.000000 
Sr15	 0.628297	 0.755960	 0.000000 
Ti16	 0.483959	 0.839293	 0.500000 
Sr17	 0.510446	 0.551835	 0.500000 
Ti18	 0.943458	 0.301835	 0.000000 
Sr19	 0.339622	 0.922626	 0.000000 
Sr20	 0.221771	 0.718502	 0.500000 
#                 ---end-of-data-block---
