data_A fcc partile with size of 8 A with 100/111/110 ratio of 1/0.965612/2
_cell_length_a               11.760000
_cell_length_b               11.760000
_cell_length_c               11.760000
_cell_angle_alpha          90.000000
_cell_angle_beta           90.000000
_cell_angle_gamma          90.000000
_symmetry_cell_setting          Triclinic
_symmetry_space_group_name_H-M 'P 1' 
loop_
_atom_site_label
_atom_site_fract_x
_atom_site_fract_y
_atom_site_fract_z
Pt1	 0.588940	 0.792545	 0.146447 
Pt2	 0.397450	 0.863244	 0.264298 
Pt3	 0.719425	 0.949517	 0.264298 
Pt4	 0.327969	 0.478601	 0.382149 
Pt5	 0.266964	 0.706272	 0.382149 
Pt6	 0.266964	 0.706272	 0.617851 
Pt7	 0.649944	 0.564874	 0.146447 
Pt8	 0.519458	 0.407902	 0.264298 
Pt9	 0.458454	 0.635573	 0.264298 
Pt10	 0.649944	 0.564874	 0.382149 
Pt11	 0.588940	 0.792545	 0.382149 
Pt12	 0.458454	 0.635573	 0.500000 
Pt13	 0.397450	 0.863244	 0.500000 
Pt14	 0.588940	 0.792545	 0.617851 
Pt15	 0.397450	 0.863244	 0.735702 
Pt16	 0.841434	 0.494175	 0.264298 
Pt17	 0.780429	 0.721846	 0.264298 
Pt18	 0.971919	 0.651147	 0.382149 
Pt19	 0.910915	 0.878818	 0.382149 
Pt20	 0.780429	 0.721846	 0.500000 
Pt21	 0.719425	 0.949517	 0.500000 
Pt22	 0.910915	 0.878818	 0.617851 
Pt23	 0.719425	 0.949517	 0.735702 
Pt24	 0.327969	 0.478601	 0.617851 
Pt25	 0.710948	 0.337203	 0.382149 
Pt26	 0.519458	 0.407902	 0.500000 
Pt27	 0.710948	 0.337203	 0.617851 
Pt28	 0.649944	 0.564874	 0.617851 
Pt29	 0.519458	 0.407902	 0.735702 
Pt30	 0.458454	 0.635573	 0.735702 
Pt31	 0.649944	 0.564874	 0.853553 
Pt32	 0.588940	 0.792545	 0.853553 
Pt33	 0.841434	 0.494175	 0.500000 
Pt34	 0.971919	 0.651147	 0.617851 
Pt35	 0.841434	 0.494175	 0.735702 
Pt36	 0.780429	 0.721846	 0.735702 
#                 ---end-of-data-block---
