data_A fcc partile with size of 8 A with 100/111/110 ratio of 1/0.988023/2
_cell_length_a               11.760000
_cell_length_b               11.760000
_cell_length_c               11.760000
_cell_angle_alpha          90.000000
_cell_angle_beta           90.000000
_cell_angle_gamma          90.000000
_symmetry_cell_setting          Triclinic
_symmetry_space_group_name_H-M 'P 1' 
loop_
_atom_site_label
_atom_site_fract_x
_atom_site_fract_y
_atom_site_fract_z
Pt1	 0.507435	 0.818387	 0.146447 
Pt2	 0.304172	 0.837116	 0.264298 
Pt3	 0.889584	 0.156486	 0.382149 
Pt4	 0.336611	 0.447596	 0.382149 
Pt5	 0.218760	 0.651720	 0.382149 
Pt6	 0.218760	 0.651720	 0.617851 
Pt7	 0.625286	 0.614263	 0.146447 
Pt8	 0.539874	 0.428867	 0.264298 
Pt9	 0.422023	 0.632991	 0.264298 
Pt10	 0.625286	 0.614263	 0.382149 
Pt11	 0.507435	 0.818387	 0.382149 
Pt12	 0.422023	 0.632991	 0.500000 
Pt13	 0.304172	 0.837116	 0.500000 
Pt14	 0.507435	 0.818387	 0.617851 
Pt15	 0.889584	 0.156486	 0.617851 
Pt16	 0.304172	 0.837116	 0.735702 
Pt17	 0.828549	 0.595534	 0.264298 
Pt18	 0.710698	 0.799658	 0.264298 
Pt19	 0.913961	 0.780929	 0.382149 
Pt20	 0.796110	 0.985053	 0.382149 
Pt21	 0.710698	 0.799658	 0.500000 
Pt22	 0.796110	 0.985053	 0.617851 
Pt23	 0.336611	 0.447596	 0.617851 
Pt24	 0.743137	 0.410139	 0.382149 
Pt25	 0.539874	 0.428867	 0.500000 
Pt26	 0.743137	 0.410139	 0.617851 
Pt27	 0.625286	 0.614263	 0.617851 
Pt28	 0.539874	 0.428867	 0.735702 
Pt29	 0.422023	 0.632991	 0.735702 
Pt30	 0.625286	 0.614263	 0.853553 
Pt31	 0.507435	 0.818387	 0.853553 
Pt32	 0.828549	 0.595534	 0.500000 
Pt33	 0.913961	 0.780929	 0.617851 
Pt34	 0.828549	 0.595534	 0.735702 
Pt35	 0.710698	 0.799658	 0.735702 
#                 ---end-of-data-block---
