data_TiO2_rutile [001] nx 2 ny 2 nz 1
_cell_length_a               9.188000
_cell_length_b               9.188000
_cell_length_c               2.959000
_cell_angle_alpha          90.000000
_cell_angle_beta           90.000000
_cell_angle_gamma          90.000000
_symmetry_cell_setting          Triclinic
_symmetry_space_group_name_H-M 'P 1' 
loop_
_atom_site_label
_atom_site_fract_x
_atom_site_fract_y
_atom_site_fract_z
Ti1	 0.239515	 0.273656	 0.000000 
Ti2	 0.416292	 0.579842	 0.500000 
Ti3	 0.110106	 0.756619	 0.000000 
Ti4	 0.545701	 0.096879	 0.500000 
Ti5	 0.722478	 0.403065	 0.000000 
Ti6	 0.899255	 0.709251	 0.500000 
Ti7	 0.593068	 0.886028	 0.000000 
#                 ---end-of-data-block---
