data_TiO2_rutile [001] nx 2 ny 2 nz 1
_cell_length_a               9.188000
_cell_length_b               9.188000
_cell_length_c               2.959000
_cell_angle_alpha          90.000000
_cell_angle_beta           90.000000
_cell_angle_gamma          90.000000
_symmetry_cell_setting          Triclinic
_symmetry_space_group_name_H-M 'P 1' 
loop_
_atom_site_label
_atom_site_fract_x
_atom_site_fract_y
_atom_site_fract_z
Ti1	 0.544604	 0.023790	 0.000000 
Ti2	 0.721381	 0.329976	 0.500000 
Ti3	 0.415194	 0.506752	 0.000000 
Ti4	 0.591971	 0.812939	 0.500000 
Ti5	 0.238418	 0.200566	 0.500000 
Ti6	 0.898157	 0.636162	 0.000000 
Ti7	 0.109008	 0.683529	 0.500000 
#                 ---end-of-data-block---
