data_TiO2_rutile [001] nx 2 ny 2 nz 1
_cell_length_a               9.188000
_cell_length_b               9.188000
_cell_length_c               2.959000
_cell_angle_alpha          90.000000
_cell_angle_beta           90.000000
_cell_angle_gamma          90.000000
_symmetry_cell_setting          Triclinic
_symmetry_space_group_name_H-M 'P 1' 
loop_
_atom_site_label
_atom_site_fract_x
_atom_site_fract_y
_atom_site_fract_z
Ti1	 0.583754	 0.078987	 0.000000 
Ti2	 0.760531	 0.385173	 0.500000 
Ti3	 0.454345	 0.561950	 0.000000 
Ti4	 0.631121	 0.868136	 0.500000 
Ti5	 0.277568	 0.255763	 0.500000 
Ti6	 0.937308	 0.691359	 0.000000 
Ti7	 0.148159	 0.738726	 0.500000 
#                 ---end-of-data-block---
