data_TiO2_rutile [001] nx 2 ny 2 nz 1
_cell_length_a               9.188000
_cell_length_b               9.188000
_cell_length_c               2.959000
_cell_angle_alpha          90.000000
_cell_angle_beta           90.000000
_cell_angle_gamma          90.000000
_symmetry_cell_setting          Triclinic
_symmetry_space_group_name_H-M 'P 1' 
loop_
_atom_site_label
_atom_site_fract_x
_atom_site_fract_y
_atom_site_fract_z
Ti1	 0.323552	 0.063640	 0.000000 
Ti2	 0.415059	 0.405146	 0.500000 
Ti3	 0.073552	 0.496652	 0.000000 
Ti4	 0.165059	 0.838159	 0.500000 
Ti5	 0.756565	 0.313640	 0.000000 
Ti6	 0.848071	 0.655146	 0.500000 
Ti7	 0.506565	 0.746652	 0.000000 
#                 ---end-of-data-block---
