data_Single Layer of MoS2nx 3 ny 2 nz 1
_cell_length_a               10.807997
_cell_length_b               10.807997
_cell_length_c               3.080000
_cell_angle_alpha          90.000000
_cell_angle_beta           90.000000
_cell_angle_gamma          90.000000
_symmetry_cell_setting          Triclinic
_symmetry_space_group_name_H-M 'P 1' 
loop_
_atom_site_label
_atom_site_fract_x
_atom_site_fract_y
_atom_site_fract_z
S1	 0.216809	 0.283670	 1.000000 
S2	 0.216809	 0.283670	 0.000000 
Mo3	 0.050143	 0.572345	 0.500000 
Mo4	 0.300143	 0.428007	 0.500000 
S5	 0.216809	 0.572345	 1.000000 
S6	 0.216809	 0.572345	 0.000000 
Mo7	 0.300143	 0.139332	 0.500000 
S8	 0.466809	 0.139332	 1.000000 
S9	 0.466809	 0.139332	 0.000000 
S10	 0.466809	 0.428007	 1.000000 
S11	 0.466809	 0.428007	 0.000000 
Mo12	 0.300143	 0.716682	 0.500000 
Mo13	 0.550143	 0.572345	 0.500000 
S14	 0.466809	 0.716682	 1.000000 
S15	 0.466809	 0.716682	 0.000000 
S16	 0.216809	 0.861020	 1.000000 
S17	 0.216809	 0.861020	 0.000000 
Mo18	 0.550143	 0.283670	 0.500000 
Mo19	 0.800143	 0.139332	 0.500000 
S20	 0.716809	 0.283670	 1.000000 
S21	 0.716809	 0.283670	 0.000000 
S22	 0.716809	 0.572345	 1.000000 
S23	 0.716809	 0.572345	 0.000000 
Mo24	 0.550143	 0.861020	 0.500000 
Mo25	 0.800143	 0.716682	 0.500000 
S26	 0.716809	 0.861020	 1.000000 
S27	 0.716809	 0.861020	 0.000000 
Mo28	 0.800143	 0.428007	 0.500000 
S29	 0.966809	 0.428007	 1.000000 
S30	 0.966809	 0.428007	 0.000000 
#                 ---end-of-data-block---
