data_A fcc partile with size of 16 A with 100/111/110 ratio of 1/0.839297/2
_cell_length_a               23.520000
_cell_length_b               23.520000
_cell_length_c               23.520000
_cell_angle_alpha          90.000000
_cell_angle_beta           90.000000
_cell_angle_gamma          90.000000
_symmetry_cell_setting          Triclinic
_symmetry_space_group_name_H-M 'P 1' 
loop_
_atom_site_label
_atom_site_fract_x
_atom_site_fract_y
_atom_site_fract_z
Pt1	 0.420577	 0.499391	 0.250000 
Pt2	 0.538428	 0.499391	 0.250000 
Pt3	 0.479502	 0.558317	 0.166667 
Pt4	 0.538428	 0.617242	 0.250000 
Pt5	 0.420577	 0.617242	 0.250000 
Pt6	 0.302725	 0.381540	 0.416667 
Pt7	 0.538428	 0.381540	 0.416667 
Pt8	 0.479502	 0.440465	 0.333333 
Pt9	 0.420577	 0.381540	 0.416667 
Pt10	 0.361651	 0.440465	 0.333333 
Pt11	 0.420577	 0.499391	 0.416667 
Pt12	 0.361651	 0.558317	 0.333333 
Pt13	 0.302725	 0.499391	 0.416667 
Pt14	 0.302725	 0.617242	 0.416667 
Pt15	 0.656279	 0.381540	 0.416667 
Pt16	 0.597353	 0.440465	 0.333333 
Pt17	 0.656279	 0.499391	 0.416667 
Pt18	 0.597353	 0.558317	 0.333333 
Pt19	 0.538428	 0.499391	 0.416667 
Pt20	 0.479502	 0.558317	 0.333333 
Pt21	 0.538428	 0.617242	 0.416667 
Pt22	 0.479502	 0.676168	 0.333333 
Pt23	 0.420577	 0.617242	 0.416667 
Pt24	 0.361651	 0.676168	 0.333333 
Pt25	 0.420577	 0.735093	 0.416667 
Pt26	 0.302725	 0.735093	 0.416667 
Pt27	 0.656279	 0.617242	 0.416667 
Pt28	 0.597353	 0.676168	 0.333333 
Pt29	 0.656279	 0.735093	 0.416667 
Pt30	 0.538428	 0.735093	 0.416667 
Pt31	 0.361651	 0.322614	 0.500000 
Pt32	 0.243800	 0.322614	 0.500000 
Pt33	 0.302725	 0.381540	 0.583333 
Pt34	 0.243800	 0.440465	 0.500000 
Pt35	 0.597353	 0.322614	 0.500000 
Pt36	 0.479502	 0.322614	 0.500000 
Pt37	 0.538428	 0.381540	 0.583333 
Pt38	 0.479502	 0.440465	 0.500000 
Pt39	 0.420577	 0.381540	 0.583333 
Pt40	 0.361651	 0.440465	 0.500000 
Pt41	 0.420577	 0.499391	 0.583333 
Pt42	 0.361651	 0.558317	 0.500000 
Pt43	 0.302725	 0.499391	 0.583333 
Pt44	 0.243800	 0.558317	 0.500000 
Pt45	 0.302725	 0.617242	 0.583333 
Pt46	 0.243800	 0.676168	 0.500000 
Pt47	 0.715204	 0.322614	 0.500000 
Pt48	 0.715204	 0.440465	 0.500000 
Pt49	 0.656279	 0.381540	 0.583333 
Pt50	 0.597353	 0.440465	 0.500000 
Pt51	 0.656279	 0.499391	 0.583333 
Pt52	 0.597353	 0.558317	 0.500000 
Pt53	 0.538428	 0.499391	 0.583333 
Pt54	 0.479502	 0.558317	 0.500000 
Pt55	 0.538428	 0.617242	 0.583333 
Pt56	 0.479502	 0.676168	 0.500000 
Pt57	 0.420577	 0.617242	 0.583333 
Pt58	 0.361651	 0.676168	 0.500000 
Pt59	 0.420577	 0.735093	 0.583333 
Pt60	 0.361651	 0.794019	 0.500000 
Pt61	 0.302725	 0.735093	 0.583333 
Pt62	 0.243800	 0.794019	 0.500000 
Pt63	 0.715204	 0.558317	 0.500000 
Pt64	 0.715204	 0.676168	 0.500000 
Pt65	 0.656279	 0.617242	 0.583333 
Pt66	 0.597353	 0.676168	 0.500000 
Pt67	 0.656279	 0.735093	 0.583333 
Pt68	 0.597353	 0.794019	 0.500000 
Pt69	 0.538428	 0.735093	 0.583333 
Pt70	 0.479502	 0.794019	 0.500000 
Pt71	 0.715204	 0.794019	 0.500000 
Pt72	 0.479502	 0.440465	 0.666667 
Pt73	 0.361651	 0.440465	 0.666667 
Pt74	 0.420577	 0.499391	 0.750000 
Pt75	 0.361651	 0.558317	 0.666667 
Pt76	 0.597353	 0.440465	 0.666667 
Pt77	 0.597353	 0.558317	 0.666667 
Pt78	 0.538428	 0.499391	 0.750000 
Pt79	 0.479502	 0.558317	 0.666667 
Pt80	 0.538428	 0.617242	 0.750000 
Pt81	 0.479502	 0.676168	 0.666667 
Pt82	 0.420577	 0.617242	 0.750000 
Pt83	 0.361651	 0.676168	 0.666667 
Pt84	 0.597353	 0.676168	 0.666667 
Pt85	 0.479502	 0.558317	 0.833333 
#                 ---end-of-data-block---
