data_C:\Users\admin\Documents\atomsegmentation_bupt_fullsuite_3\misc\07384.cif
_cell_length_a               23.739600
_cell_length_b               23.739600
_cell_length_c               5.449400
_cell_angle_alpha          90.000000
_cell_angle_beta           90.000000
_cell_angle_gamma          90.000000
_symmetry_cell_setting          Triclinic
_symmetry_space_group_name_H-M 'P 1' 
loop_
_atom_site_label
_atom_site_fract_x
_atom_site_fract_y
_atom_site_fract_z
Sc1	 0.071953	 0.172425	 0.000000 
Sc2	 0.040738	 0.288922	 0.500000 
Sc3	 0.232941	 0.215561	 0.000000 
Sc4	 0.201726	 0.332058	 0.500000 
Dy5	 0.179873	 0.091639	 0.017200 
Dy6	 0.317224	 0.222987	 0.517200 
Dy7	 0.286009	 0.339484	 0.982800 
Dy8	 0.148658	 0.208136	 0.482800 
Sc9	 0.009523	 0.405419	 0.000000 
Sc10	 0.170511	 0.448555	 0.000000 
Sc11	 0.139295	 0.565052	 0.500000 
Dy12	 0.117442	 0.324633	 0.017200 
Dy13	 0.254794	 0.455981	 0.517200 
Dy14	 0.223579	 0.572478	 0.982800 
Dy15	 0.086227	 0.441130	 0.482800 
Sc16	 0.103169	 0.055928	 0.500000 
Sc17	 0.108080	 0.681549	 0.000000 
Sc18	 0.264156	 0.099064	 0.500000 
Dy19	 0.055012	 0.557627	 0.017200 
Dy20	 0.192363	 0.688975	 0.517200 
Dy21	 0.348440	 0.106490	 0.982800 
Dy22	 0.023797	 0.674124	 0.482800 
Sc23	 0.393929	 0.258698	 0.000000 
Sc24	 0.362713	 0.375195	 0.500000 
Sc25	 0.554916	 0.301834	 0.000000 
Sc26	 0.523701	 0.418331	 0.500000 
Dy27	 0.501848	 0.177912	 0.017200 
Dy28	 0.639200	 0.309260	 0.517200 
Dy29	 0.607984	 0.425757	 0.982800 
Dy30	 0.470633	 0.294409	 0.482800 
Sc31	 0.331498	 0.491692	 0.000000 
Sc32	 0.300283	 0.608189	 0.500000 
Sc33	 0.492486	 0.534828	 0.000000 
Sc34	 0.461271	 0.651325	 0.500000 
Dy35	 0.439418	 0.410906	 0.017200 
Dy36	 0.576769	 0.542254	 0.517200 
Dy37	 0.545554	 0.658751	 0.982800 
Dy38	 0.408203	 0.527403	 0.482800 
Sc39	 0.269068	 0.724686	 0.000000 
Sc40	 0.425144	 0.142201	 0.500000 
Sc41	 0.430055	 0.767822	 0.000000 
Sc42	 0.586132	 0.185337	 0.500000 
Dy43	 0.376987	 0.643900	 0.017200 
Dy44	 0.514339	 0.775248	 0.517200 
Dy45	 0.670415	 0.192763	 0.982800 
Dy46	 0.345772	 0.760397	 0.482800 
Sc47	 0.715904	 0.344971	 0.000000 
Sc48	 0.684689	 0.461468	 0.500000 
Sc49	 0.876892	 0.388107	 0.000000 
Sc50	 0.845676	 0.504604	 0.500000 
Dy51	 0.823824	 0.264185	 0.017200 
Dy52	 0.961175	 0.395533	 0.517200 
Dy53	 0.929960	 0.512030	 0.982800 
Dy54	 0.792608	 0.380682	 0.482800 
Sc55	 0.653474	 0.577965	 0.000000 
Sc56	 0.622258	 0.694462	 0.500000 
Sc57	 0.814461	 0.621101	 0.000000 
Sc58	 0.783246	 0.737598	 0.500000 
Dy59	 0.761393	 0.497179	 0.017200 
Dy60	 0.898744	 0.628527	 0.517200 
Dy61	 0.867529	 0.745024	 0.982800 
Dy62	 0.730178	 0.613676	 0.482800 
Sc63	 0.591043	 0.810959	 0.000000 
Sc64	 0.747119	 0.228474	 0.500000 
Sc65	 0.752031	 0.854095	 0.000000 
Sc66	 0.908107	 0.271611	 0.500000 
Dy67	 0.698963	 0.730173	 0.017200 
Dy68	 0.836314	 0.861521	 0.517200 
Dy69	 0.992390	 0.279036	 0.982800 
Dy70	 0.667747	 0.846670	 0.482800 
#                 ---end-of-data-block---
