data_C:\Users\admin\Documents\atomsegmentation_bupt_fullsuite_3\misc\07407.cif
_cell_length_a               23.739600
_cell_length_b               23.739600
_cell_length_c               5.449400
_cell_angle_alpha          90.000000
_cell_angle_beta           90.000000
_cell_angle_gamma          90.000000
_symmetry_cell_setting          Triclinic
_symmetry_space_group_name_H-M 'P 1' 
loop_
_atom_site_label
_atom_site_fract_x
_atom_site_fract_y
_atom_site_fract_z
Sc1	 0.372996	 0.371680	 0.000000 
Sc2	 0.287715	 0.456962	 0.500000 
Sc3	 0.490847	 0.489531	 0.000000 
Sc4	 0.405566	 0.574813	 0.500000 
Dy5	 0.506850	 0.355677	 0.017200 
Dy6	 0.560126	 0.538104	 0.517200 
Dy7	 0.474845	 0.623385	 0.982800 
Dy8	 0.421569	 0.440959	 0.482800 
Sc9	 0.202433	 0.542243	 0.000000 
Sc10	 0.117151	 0.627525	 0.500000 
Sc11	 0.320284	 0.660095	 0.000000 
Sc12	 0.235002	 0.745376	 0.500000 
Dy13	 0.336287	 0.526241	 0.017200 
Dy14	 0.389563	 0.708667	 0.517200 
Dy15	 0.304281	 0.793949	 0.982800 
Dy16	 0.251005	 0.611522	 0.482800 
Sc17	 0.543560	 0.201117	 0.000000 
Sc18	 0.458278	 0.286398	 0.500000 
Sc19	 0.661411	 0.318968	 0.000000 
Sc20	 0.576129	 0.404250	 0.500000 
Dy21	 0.677414	 0.185114	 0.017200 
Dy22	 0.730690	 0.367540	 0.517200 
Dy23	 0.645408	 0.452822	 0.982800 
Dy24	 0.592132	 0.270396	 0.482800 
Sc25	 0.608699	 0.607382	 0.000000 
Sc26	 0.523417	 0.692664	 0.500000 
Sc27	 0.726550	 0.725234	 0.000000 
Sc28	 0.641268	 0.810515	 0.500000 
Dy29	 0.742553	 0.591379	 0.017200 
Dy30	 0.795828	 0.773806	 0.517200 
Dy31	 0.710547	 0.859088	 0.982800 
Dy32	 0.657271	 0.676661	 0.482800 
Sc33	 0.438135	 0.777946	 0.000000 
Sc34	 0.352854	 0.863227	 0.500000 
Sc35	 0.555986	 0.895797	 0.000000 
Sc36	 0.470705	 0.981079	 0.500000 
Dy37	 0.571989	 0.761943	 0.017200 
Dy38	 0.625265	 0.944369	 0.517200 
Dy39	 0.486708	 0.847224	 0.482800 
Sc40	 0.779262	 0.436819	 0.000000 
Sc41	 0.693980	 0.522101	 0.500000 
Sc42	 0.897113	 0.554670	 0.000000 
Sc43	 0.811831	 0.639952	 0.500000 
Dy44	 0.913116	 0.420816	 0.017200 
Dy45	 0.966392	 0.603243	 0.517200 
Dy46	 0.881110	 0.688524	 0.982800 
Dy47	 0.827834	 0.506098	 0.482800 
Sc48	 0.844401	 0.843085	 0.000000 
Sc49	 0.759119	 0.928366	 0.500000 
Sc50	 0.255145	 0.253829	 0.000000 
Sc51	 0.169864	 0.339111	 0.500000 
Dy52	 0.271148	 0.119975	 0.017200 
Dy53	 0.324424	 0.302401	 0.517200 
Dy54	 0.239142	 0.387683	 0.982800 
Dy55	 0.185866	 0.205257	 0.482800 
Sc56	 0.084582	 0.424392	 0.000000 
Dy57	 0.100585	 0.290538	 0.017200 
Dy58	 0.153861	 0.472965	 0.517200 
Dy59	 0.068579	 0.558246	 0.982800 
Dy60	 0.015303	 0.375820	 0.482800 
Sc61	 0.929683	 0.757803	 0.500000 
Sc62	 0.425709	 0.083266	 0.000000 
Sc63	 0.340427	 0.168547	 0.500000 
Dy64	 0.494987	 0.131838	 0.517200 
Dy65	 0.409706	 0.217120	 0.982800 
Dy66	 0.356430	 0.034693	 0.482800 
#                 ---end-of-data-block---
