data_Single Layer of MoS2nx 6 ny 4 nz 1
_cell_length_a               21.615994
_cell_length_b               21.615994
_cell_length_c               3.080000
_cell_angle_alpha          90.000000
_cell_angle_beta           90.000000
_cell_angle_gamma          90.000000
_symmetry_cell_setting          Triclinic
_symmetry_space_group_name_H-M 'P 1' 
loop_
_atom_site_label
_atom_site_fract_x
_atom_site_fract_y
_atom_site_fract_z
Mo1	 0.379845	 0.096973	 0.500000 
Mo2	 0.519265	 0.059616	 0.500000 
S3	 0.460339	 0.118541	 1.000000 
S4	 0.460339	 0.118541	 0.000000 
S5	 0.320920	 0.155899	 1.000000 
S6	 0.320920	 0.155899	 0.000000 
Mo7	 0.203069	 0.273750	 0.500000 
Mo8	 0.342488	 0.236392	 0.500000 
S9	 0.283562	 0.295318	 1.000000 
S10	 0.283562	 0.295318	 0.000000 
S11	 0.144143	 0.332675	 1.000000 
S12	 0.144143	 0.332675	 0.000000 
Mo13	 0.026292	 0.450526	 0.500000 
Mo14	 0.165711	 0.413169	 0.500000 
S15	 0.106786	 0.472095	 1.000000 
S16	 0.106786	 0.472095	 0.000000 
S17	 0.599759	 0.081184	 1.000000 
S18	 0.599759	 0.081184	 0.000000 
Mo19	 0.481907	 0.199035	 0.500000 
Mo20	 0.621327	 0.161678	 0.500000 
S21	 0.562401	 0.220603	 1.000000 
S22	 0.562401	 0.220603	 0.000000 
S23	 0.422982	 0.257961	 1.000000 
S24	 0.422982	 0.257961	 0.000000 
Mo25	 0.305131	 0.375812	 0.500000 
Mo26	 0.444550	 0.338454	 0.500000 
S27	 0.385625	 0.397380	 1.000000 
S28	 0.385625	 0.397380	 0.000000 
S29	 0.246205	 0.434737	 1.000000 
S30	 0.246205	 0.434737	 0.000000 
Mo31	 0.128354	 0.552588	 0.500000 
Mo32	 0.267773	 0.515231	 0.500000 
S33	 0.208848	 0.574157	 1.000000 
S34	 0.208848	 0.574157	 0.000000 
S35	 0.069428	 0.611514	 1.000000 
S36	 0.069428	 0.611514	 0.000000 
Mo37	 0.658684	 0.022258	 0.500000 
Mo38	 0.090997	 0.692008	 0.500000 
S39	 0.739178	 0.043827	 1.000000 
S40	 0.739178	 0.043827	 0.000000 
S41	 0.701821	 0.183246	 1.000000 
S42	 0.701821	 0.183246	 0.000000 
Mo43	 0.583969	 0.301097	 0.500000 
Mo44	 0.723389	 0.263740	 0.500000 
S45	 0.664463	 0.322665	 1.000000 
S46	 0.664463	 0.322665	 0.000000 
S47	 0.525044	 0.360023	 1.000000 
S48	 0.525044	 0.360023	 0.000000 
Mo49	 0.407193	 0.477874	 0.500000 
Mo50	 0.546612	 0.440517	 0.500000 
S51	 0.487687	 0.499442	 1.000000 
S52	 0.487687	 0.499442	 0.000000 
S53	 0.348267	 0.536799	 1.000000 
S54	 0.348267	 0.536799	 0.000000 
Mo55	 0.230416	 0.654651	 0.500000 
Mo56	 0.369835	 0.617293	 0.500000 
S57	 0.310910	 0.676219	 1.000000 
S58	 0.310910	 0.676219	 0.000000 
S59	 0.171491	 0.713576	 1.000000 
S60	 0.171491	 0.713576	 0.000000 
Mo61	 0.760746	 0.124320	 0.500000 
Mo62	 0.193059	 0.794070	 0.500000 
S63	 0.841240	 0.145889	 1.000000 
S64	 0.841240	 0.145889	 0.000000 
S65	 0.803883	 0.285308	 1.000000 
S66	 0.803883	 0.285308	 0.000000 
Mo67	 0.686032	 0.403159	 0.500000 
Mo68	 0.825451	 0.365802	 0.500000 
S69	 0.766525	 0.424727	 1.000000 
S70	 0.766525	 0.424727	 0.000000 
S71	 0.627106	 0.462085	 1.000000 
S72	 0.627106	 0.462085	 0.000000 
Mo73	 0.509255	 0.579936	 0.500000 
Mo74	 0.648674	 0.542579	 0.500000 
S75	 0.589749	 0.601504	 1.000000 
S76	 0.589749	 0.601504	 0.000000 
S77	 0.450329	 0.638862	 1.000000 
S78	 0.450329	 0.638862	 0.000000 
Mo79	 0.332478	 0.756713	 0.500000 
Mo80	 0.471898	 0.719355	 0.500000 
S81	 0.412972	 0.778281	 1.000000 
S82	 0.412972	 0.778281	 0.000000 
S83	 0.273553	 0.815638	 1.000000 
S84	 0.273553	 0.815638	 0.000000 
Mo85	 0.862808	 0.226383	 0.500000 
Mo86	 0.295121	 0.896132	 0.500000 
S87	 0.943302	 0.247951	 1.000000 
S88	 0.943302	 0.247951	 0.000000 
S89	 0.905945	 0.387370	 1.000000 
S90	 0.905945	 0.387370	 0.000000 
Mo91	 0.788094	 0.505221	 0.500000 
Mo92	 0.927513	 0.467864	 0.500000 
S93	 0.868587	 0.526790	 1.000000 
S94	 0.868587	 0.526790	 0.000000 
S95	 0.729168	 0.564147	 1.000000 
S96	 0.729168	 0.564147	 0.000000 
Mo97	 0.611317	 0.681998	 0.500000 
Mo98	 0.750736	 0.644641	 0.500000 
S99	 0.691811	 0.703566	 1.000000 
S100	 0.691811	 0.703566	 0.000000 
S101	 0.552391	 0.740924	 1.000000 
S102	 0.552391	 0.740924	 0.000000 
Mo103	 0.434540	 0.858775	 0.500000 
Mo104	 0.573960	 0.821417	 0.500000 
S105	 0.515034	 0.880343	 1.000000 
S106	 0.515034	 0.880343	 0.000000 
S107	 0.375615	 0.917700	 1.000000 
S108	 0.375615	 0.917700	 0.000000 
Mo109	 0.964870	 0.328445	 0.500000 
Mo110	 0.397183	 0.998194	 0.500000 
Mo111	 0.890156	 0.607283	 0.500000 
S112	 0.970649	 0.628852	 1.000000 
S113	 0.970649	 0.628852	 0.000000 
S114	 0.831230	 0.666209	 1.000000 
S115	 0.831230	 0.666209	 0.000000 
Mo116	 0.713379	 0.784060	 0.500000 
Mo117	 0.852798	 0.746703	 0.500000 
S118	 0.793873	 0.805628	 1.000000 
S119	 0.793873	 0.805628	 0.000000 
S120	 0.654453	 0.842986	 1.000000 
S121	 0.654453	 0.842986	 0.000000 
Mo122	 0.536602	 0.960837	 0.500000 
Mo123	 0.676022	 0.923479	 0.500000 
S124	 0.617096	 0.982405	 1.000000 
S125	 0.617096	 0.982405	 0.000000 
#                 ---end-of-data-block---
