data_Single Layer of MoS2nx 6 ny 4 nz 1
_cell_length_a               21.615994
_cell_length_b               21.615994
_cell_length_c               3.080000
_cell_angle_alpha          90.000000
_cell_angle_beta           90.000000
_cell_angle_gamma          90.000000
_symmetry_cell_setting          Triclinic
_symmetry_space_group_name_H-M 'P 1' 
loop_
_atom_site_label
_atom_site_fract_x
_atom_site_fract_y
_atom_site_fract_z
S1	 0.794019	 0.064877	 1.000000 
S2	 0.794019	 0.064877	 0.000000 
Mo3	 0.633031	 0.108013	 0.500000 
Mo4	 0.772450	 0.145370	 0.500000 
S5	 0.691957	 0.166939	 1.000000 
S6	 0.691957	 0.166939	 0.000000 
S7	 0.552537	 0.129581	 1.000000 
S8	 0.552537	 0.129581	 0.000000 
Mo9	 0.391550	 0.172718	 0.500000 
Mo10	 0.530969	 0.210075	 0.500000 
S11	 0.450475	 0.231643	 1.000000 
S12	 0.450475	 0.231643	 0.000000 
S13	 0.311056	 0.194286	 1.000000 
S14	 0.311056	 0.194286	 0.000000 
Mo15	 0.150068	 0.237423	 0.500000 
Mo16	 0.289488	 0.274780	 0.500000 
S17	 0.208994	 0.296348	 1.000000 
S18	 0.208994	 0.296348	 0.000000 
S19	 0.069574	 0.258991	 1.000000 
S20	 0.069574	 0.258991	 0.000000 
Mo21	 0.874513	 0.043308	 0.500000 
Mo22	 0.048006	 0.339485	 0.500000 
S23	 0.831376	 0.204296	 1.000000 
S24	 0.831376	 0.204296	 0.000000 
Mo25	 0.670388	 0.247432	 0.500000 
Mo26	 0.809808	 0.284790	 0.500000 
S27	 0.729314	 0.306358	 1.000000 
S28	 0.729314	 0.306358	 0.000000 
S29	 0.589895	 0.269001	 1.000000 
S30	 0.589895	 0.269001	 0.000000 
Mo31	 0.428907	 0.312137	 0.500000 
Mo32	 0.568326	 0.349495	 0.500000 
S33	 0.487832	 0.371063	 1.000000 
S34	 0.487832	 0.371063	 0.000000 
S35	 0.348413	 0.333705	 1.000000 
S36	 0.348413	 0.333705	 0.000000 
Mo37	 0.187425	 0.376842	 0.500000 
Mo38	 0.326845	 0.414199	 0.500000 
S39	 0.246351	 0.435768	 1.000000 
S40	 0.246351	 0.435768	 0.000000 
S41	 0.106932	 0.398410	 1.000000 
S42	 0.106932	 0.398410	 0.000000 
Mo43	 0.911870	 0.182728	 0.500000 
Mo44	 0.085363	 0.478904	 0.500000 
S45	 0.004870	 0.500472	 1.000000 
S46	 0.004870	 0.500472	 0.000000 
S47	 0.868733	 0.343715	 1.000000 
S48	 0.868733	 0.343715	 0.000000 
Mo49	 0.707746	 0.386852	 0.500000 
Mo50	 0.847165	 0.424209	 0.500000 
S51	 0.766671	 0.445777	 1.000000 
S52	 0.766671	 0.445777	 0.000000 
S53	 0.627252	 0.408420	 1.000000 
S54	 0.627252	 0.408420	 0.000000 
Mo55	 0.466264	 0.451557	 0.500000 
Mo56	 0.605684	 0.488914	 0.500000 
S57	 0.525190	 0.510482	 1.000000 
S58	 0.525190	 0.510482	 0.000000 
S59	 0.385770	 0.473125	 1.000000 
S60	 0.385770	 0.473125	 0.000000 
Mo61	 0.224783	 0.516261	 0.500000 
Mo62	 0.364202	 0.553619	 0.500000 
S63	 0.283708	 0.575187	 1.000000 
S64	 0.283708	 0.575187	 0.000000 
S65	 0.144289	 0.537830	 1.000000 
S66	 0.144289	 0.537830	 0.000000 
Mo67	 0.949227	 0.322147	 0.500000 
Mo68	 0.122721	 0.618323	 0.500000 
S69	 0.042227	 0.639892	 1.000000 
S70	 0.042227	 0.639892	 0.000000 
S71	 0.906091	 0.483135	 1.000000 
S72	 0.906091	 0.483135	 0.000000 
Mo73	 0.745103	 0.526271	 0.500000 
Mo74	 0.884522	 0.563629	 0.500000 
S75	 0.804029	 0.585197	 1.000000 
S76	 0.804029	 0.585197	 0.000000 
S77	 0.664609	 0.547839	 1.000000 
S78	 0.664609	 0.547839	 0.000000 
Mo79	 0.503622	 0.590976	 0.500000 
Mo80	 0.643041	 0.628333	 0.500000 
S81	 0.562547	 0.649902	 1.000000 
S82	 0.562547	 0.649902	 0.000000 
S83	 0.423128	 0.612544	 1.000000 
S84	 0.423128	 0.612544	 0.000000 
Mo85	 0.262140	 0.655681	 0.500000 
Mo86	 0.401559	 0.693038	 0.500000 
S87	 0.321066	 0.714606	 1.000000 
S88	 0.321066	 0.714606	 0.000000 
S89	 0.181646	 0.677249	 1.000000 
S90	 0.181646	 0.677249	 0.000000 
Mo91	 0.986584	 0.461566	 0.500000 
Mo92	 0.160078	 0.757743	 0.500000 
S93	 0.079584	 0.779311	 1.000000 
S94	 0.079584	 0.779311	 0.000000 
S95	 0.943448	 0.622554	 1.000000 
S96	 0.943448	 0.622554	 0.000000 
Mo97	 0.782460	 0.665691	 0.500000 
Mo98	 0.921880	 0.703048	 0.500000 
S99	 0.841386	 0.724616	 1.000000 
S100	 0.841386	 0.724616	 0.000000 
S101	 0.701966	 0.687259	 1.000000 
S102	 0.701966	 0.687259	 0.000000 
Mo103	 0.540979	 0.730395	 0.500000 
Mo104	 0.680398	 0.767753	 0.500000 
S105	 0.599904	 0.789321	 1.000000 
S106	 0.599904	 0.789321	 0.000000 
S107	 0.460485	 0.751964	 1.000000 
S108	 0.460485	 0.751964	 0.000000 
Mo109	 0.299497	 0.795100	 0.500000 
Mo110	 0.438917	 0.832457	 0.500000 
S111	 0.358423	 0.854026	 1.000000 
S112	 0.358423	 0.854026	 0.000000 
S113	 0.219004	 0.816668	 1.000000 
S114	 0.219004	 0.816668	 0.000000 
Mo115	 0.197435	 0.897162	 0.500000 
S116	 0.116941	 0.918730	 1.000000 
S117	 0.116941	 0.918730	 0.000000 
S118	 0.980805	 0.761973	 1.000000 
S119	 0.980805	 0.761973	 0.000000 
Mo120	 0.819818	 0.805110	 0.500000 
Mo121	 0.735093	 0.005951	 0.500000 
S122	 0.654599	 0.027519	 1.000000 
S123	 0.654599	 0.027519	 0.000000 
S124	 0.739324	 0.826678	 1.000000 
S125	 0.739324	 0.826678	 0.000000 
Mo126	 0.578336	 0.869815	 0.500000 
Mo127	 0.493612	 0.070656	 0.500000 
S128	 0.413118	 0.092224	 1.000000 
S129	 0.413118	 0.092224	 0.000000 
S130	 0.497842	 0.891383	 1.000000 
S131	 0.497842	 0.891383	 0.000000 
Mo132	 0.336855	 0.934520	 0.500000 
Mo133	 0.252130	 0.135361	 0.500000 
S134	 0.171636	 0.156929	 1.000000 
S135	 0.171636	 0.156929	 0.000000 
S136	 0.256361	 0.956088	 1.000000 
S137	 0.256361	 0.956088	 0.000000 
Mo138	 0.010649	 0.200065	 0.500000 
#                 ---end-of-data-block---
