data_Pt structure along [001] nx 5 ny 5 nz 1
_cell_length_a               19.600000
_cell_length_b               19.600000
_cell_length_c               3.920000
_cell_angle_alpha          90.000000
_cell_angle_beta           90.000000
_cell_angle_gamma          90.000000
_symmetry_cell_setting          Triclinic
_symmetry_space_group_name_H-M 'P 1' 
loop_
_atom_site_label
_atom_site_fract_x
_atom_site_fract_y
_atom_site_fract_z
Pt1	 0.240713	 0.020876	 0.000000 
Pt2	 0.311424	 0.143351	 0.000000 
Pt3	 0.337306	 0.046758	 0.500000 
Pt4	 0.214831	 0.117469	 0.500000 
Pt5	 0.188949	 0.214061	 0.000000 
Pt6	 0.259660	 0.336536	 0.000000 
Pt7	 0.285542	 0.239943	 0.500000 
Pt8	 0.163067	 0.310654	 0.500000 
Pt9	 0.137185	 0.407246	 0.000000 
Pt10	 0.207896	 0.529721	 0.000000 
Pt11	 0.233778	 0.433128	 0.500000 
Pt12	 0.111303	 0.503839	 0.500000 
Pt13	 0.085422	 0.600432	 0.000000 
Pt14	 0.156132	 0.722906	 0.000000 
Pt15	 0.182014	 0.626313	 0.500000 
Pt16	 0.059540	 0.697024	 0.500000 
Pt17	 0.033658	 0.793617	 0.000000 
Pt18	 0.130250	 0.819499	 0.500000 
Pt19	 0.433898	 0.072640	 0.000000 
Pt20	 0.504609	 0.195114	 0.000000 
Pt21	 0.530491	 0.098522	 0.500000 
Pt22	 0.408016	 0.169232	 0.500000 
Pt23	 0.382134	 0.265825	 0.000000 
Pt24	 0.452845	 0.388300	 0.000000 
Pt25	 0.478727	 0.291707	 0.500000 
Pt26	 0.356252	 0.362418	 0.500000 
Pt27	 0.330370	 0.459010	 0.000000 
Pt28	 0.401081	 0.581485	 0.000000 
Pt29	 0.426963	 0.484892	 0.500000 
Pt30	 0.304489	 0.555603	 0.500000 
Pt31	 0.278607	 0.652195	 0.000000 
Pt32	 0.349317	 0.774670	 0.000000 
Pt33	 0.375199	 0.678077	 0.500000 
Pt34	 0.252725	 0.748788	 0.500000 
Pt35	 0.226843	 0.845381	 0.000000 
Pt36	 0.556373	 0.001929	 0.000000 
Pt37	 0.323435	 0.871262	 0.500000 
Pt38	 0.627083	 0.124404	 0.000000 
Pt39	 0.697794	 0.246878	 0.000000 
Pt40	 0.723676	 0.150286	 0.500000 
Pt41	 0.601201	 0.220996	 0.500000 
Pt42	 0.575319	 0.317589	 0.000000 
Pt43	 0.646030	 0.440063	 0.000000 
Pt44	 0.671912	 0.343471	 0.500000 
Pt45	 0.549438	 0.414181	 0.500000 
Pt46	 0.523556	 0.510774	 0.000000 
Pt47	 0.594266	 0.633249	 0.000000 
Pt48	 0.620148	 0.536656	 0.500000 
Pt49	 0.497674	 0.607367	 0.500000 
Pt50	 0.471792	 0.703959	 0.000000 
Pt51	 0.542503	 0.826434	 0.000000 
Pt52	 0.568384	 0.729841	 0.500000 
Pt53	 0.445910	 0.800552	 0.500000 
Pt54	 0.420028	 0.897144	 0.000000 
Pt55	 0.749558	 0.053693	 0.000000 
Pt56	 0.516621	 0.923026	 0.500000 
Pt57	 0.652965	 0.027811	 0.500000 
Pt58	 0.820268	 0.176168	 0.000000 
Pt59	 0.890979	 0.298642	 0.000000 
Pt60	 0.916861	 0.202049	 0.500000 
Pt61	 0.794387	 0.272760	 0.500000 
Pt62	 0.768505	 0.369353	 0.000000 
Pt63	 0.839215	 0.491827	 0.000000 
Pt64	 0.865097	 0.395235	 0.500000 
Pt65	 0.742623	 0.465945	 0.500000 
Pt66	 0.716741	 0.562538	 0.000000 
Pt67	 0.787451	 0.685012	 0.000000 
Pt68	 0.813333	 0.588420	 0.500000 
Pt69	 0.690859	 0.659130	 0.500000 
Pt70	 0.664977	 0.755723	 0.000000 
Pt71	 0.735688	 0.878197	 0.000000 
Pt72	 0.761570	 0.781605	 0.500000 
Pt73	 0.639095	 0.852316	 0.500000 
Pt74	 0.613213	 0.948908	 0.000000 
Pt75	 0.942743	 0.105457	 0.000000 
Pt76	 0.709806	 0.974790	 0.500000 
Pt77	 0.846150	 0.079575	 0.500000 
Pt78	 0.118238	 0.091587	 0.000000 
Pt79	 0.987572	 0.324524	 0.500000 
Pt80	 0.961690	 0.421116	 0.000000 
Pt81	 0.066475	 0.284772	 0.000000 
Pt82	 0.092357	 0.188179	 0.500000 
Pt83	 0.935808	 0.517709	 0.500000 
Pt84	 0.909926	 0.614302	 0.000000 
Pt85	 0.014711	 0.477957	 0.000000 
Pt86	 0.040593	 0.381365	 0.500000 
Pt87	 0.884044	 0.710894	 0.500000 
Pt88	 0.858162	 0.807487	 0.000000 
Pt89	 0.832280	 0.904079	 0.500000 
#                 ---end-of-data-block---
