data_Pt structure along [001] nx 5 ny 5 nz 1
_cell_length_a               19.600000
_cell_length_b               19.600000
_cell_length_c               3.920000
_cell_angle_alpha          90.000000
_cell_angle_beta           90.000000
_cell_angle_gamma          90.000000
_symmetry_cell_setting          Triclinic
_symmetry_space_group_name_H-M 'P 1' 
loop_
_atom_site_label
_atom_site_fract_x
_atom_site_fract_y
_atom_site_fract_z
Pt1	 0.486074	 0.072545	 0.000000 
Pt2	 0.399471	 0.022545	 0.500000 
Pt3	 0.349471	 0.109148	 0.000000 
Pt4	 0.386074	 0.245751	 0.000000 
Pt5	 0.436074	 0.159148	 0.500000 
Pt6	 0.299471	 0.195751	 0.500000 
Pt7	 0.249471	 0.282353	 0.000000 
Pt8	 0.286074	 0.418956	 0.000000 
Pt9	 0.336074	 0.332353	 0.500000 
Pt10	 0.199471	 0.368956	 0.500000 
Pt11	 0.149471	 0.455558	 0.000000 
Pt12	 0.186074	 0.592161	 0.000000 
Pt13	 0.236074	 0.505558	 0.500000 
Pt14	 0.099471	 0.542161	 0.500000 
Pt15	 0.049471	 0.628763	 0.000000 
Pt16	 0.086074	 0.765366	 0.000000 
Pt17	 0.136074	 0.678763	 0.500000 
Pt18	 0.622677	 0.035943	 0.000000 
Pt19	 0.659279	 0.172545	 0.000000 
Pt20	 0.709279	 0.085943	 0.500000 
Pt21	 0.572677	 0.122545	 0.500000 
Pt22	 0.522677	 0.209148	 0.000000 
Pt23	 0.559279	 0.345751	 0.000000 
Pt24	 0.609279	 0.259148	 0.500000 
Pt25	 0.472677	 0.295751	 0.500000 
Pt26	 0.422677	 0.382353	 0.000000 
Pt27	 0.459279	 0.518956	 0.000000 
Pt28	 0.509279	 0.432353	 0.500000 
Pt29	 0.372677	 0.468956	 0.500000 
Pt30	 0.322677	 0.555558	 0.000000 
Pt31	 0.359279	 0.692161	 0.000000 
Pt32	 0.409279	 0.605558	 0.500000 
Pt33	 0.272677	 0.642161	 0.500000 
Pt34	 0.222677	 0.728763	 0.000000 
Pt35	 0.259279	 0.865366	 0.000000 
Pt36	 0.309279	 0.778763	 0.500000 
Pt37	 0.172677	 0.815366	 0.500000 
Pt38	 0.795882	 0.135943	 0.000000 
Pt39	 0.832484	 0.272545	 0.000000 
Pt40	 0.882484	 0.185943	 0.500000 
Pt41	 0.745882	 0.222545	 0.500000 
Pt42	 0.695882	 0.309148	 0.000000 
Pt43	 0.732484	 0.445751	 0.000000 
Pt44	 0.782484	 0.359148	 0.500000 
Pt45	 0.645882	 0.395751	 0.500000 
Pt46	 0.595882	 0.482353	 0.000000 
Pt47	 0.632484	 0.618956	 0.000000 
Pt48	 0.682484	 0.532353	 0.500000 
Pt49	 0.545882	 0.568956	 0.500000 
Pt50	 0.495882	 0.655558	 0.000000 
Pt51	 0.532484	 0.792161	 0.000000 
Pt52	 0.582484	 0.705558	 0.500000 
Pt53	 0.445882	 0.742161	 0.500000 
Pt54	 0.395882	 0.828763	 0.000000 
Pt55	 0.432484	 0.965366	 0.000000 
Pt56	 0.482484	 0.878763	 0.500000 
Pt57	 0.345882	 0.915366	 0.500000 
Pt58	 0.969087	 0.235943	 0.000000 
Pt59	 0.919087	 0.322545	 0.500000 
Pt60	 0.869087	 0.409148	 0.000000 
Pt61	 0.905689	 0.545751	 0.000000 
Pt62	 0.955689	 0.459148	 0.500000 
Pt63	 0.819087	 0.495751	 0.500000 
Pt64	 0.769087	 0.582353	 0.000000 
Pt65	 0.805689	 0.718956	 0.000000 
Pt66	 0.855689	 0.632353	 0.500000 
Pt67	 0.719087	 0.668956	 0.500000 
Pt68	 0.669087	 0.755558	 0.000000 
Pt69	 0.705689	 0.892161	 0.000000 
Pt70	 0.755689	 0.805558	 0.500000 
Pt71	 0.619087	 0.842161	 0.500000 
Pt72	 0.569087	 0.928763	 0.000000 
Pt73	 0.655689	 0.978763	 0.500000 
Pt74	 0.212869	 0.145751	 0.000000 
Pt75	 0.262869	 0.059148	 0.500000 
Pt76	 0.992292	 0.595751	 0.500000 
Pt77	 0.942292	 0.682353	 0.000000 
Pt78	 0.112869	 0.318956	 0.000000 
Pt79	 0.162869	 0.232353	 0.500000 
Pt80	 0.892292	 0.768956	 0.500000 
Pt81	 0.842292	 0.855558	 0.000000 
Pt82	 0.012869	 0.492161	 0.000000 
Pt83	 0.062869	 0.405558	 0.500000 
Pt84	 0.792292	 0.942161	 0.500000 
#                 ---end-of-data-block---
