data_Pt structure along [001] nx 5 ny 5 nz 1
_cell_length_a               19.600000
_cell_length_b               19.600000
_cell_length_c               3.920000
_cell_angle_alpha          90.000000
_cell_angle_beta           90.000000
_cell_angle_gamma          90.000000
_symmetry_cell_setting          Triclinic
_symmetry_space_group_name_H-M 'P 1' 
loop_
_atom_site_label
_atom_site_fract_x
_atom_site_fract_y
_atom_site_fract_z
Pt1	 0.656187	 0.084517	 0.000000 
Pt2	 0.752780	 0.058635	 0.500000 
Pt3	 0.533713	 0.013806	 0.000000 
Pt4	 0.463002	 0.136281	 0.000000 
Pt5	 0.559595	 0.110399	 0.500000 
Pt6	 0.437120	 0.039688	 0.500000 
Pt7	 0.340528	 0.065570	 0.000000 
Pt8	 0.269817	 0.188044	 0.000000 
Pt9	 0.366410	 0.162163	 0.500000 
Pt10	 0.243935	 0.091452	 0.500000 
Pt11	 0.147342	 0.117334	 0.000000 
Pt12	 0.076632	 0.239808	 0.000000 
Pt13	 0.173224	 0.213926	 0.500000 
Pt14	 0.050750	 0.143216	 0.500000 
Pt15	 0.849372	 0.032753	 0.000000 
Pt16	 0.778662	 0.155227	 0.000000 
Pt17	 0.707951	 0.277702	 0.000000 
Pt18	 0.804544	 0.251820	 0.500000 
Pt19	 0.682069	 0.181109	 0.500000 
Pt20	 0.585477	 0.206991	 0.000000 
Pt21	 0.514766	 0.329466	 0.000000 
Pt22	 0.611359	 0.303584	 0.500000 
Pt23	 0.488884	 0.232873	 0.500000 
Pt24	 0.392291	 0.258755	 0.000000 
Pt25	 0.321581	 0.381230	 0.000000 
Pt26	 0.418173	 0.355348	 0.500000 
Pt27	 0.295699	 0.284637	 0.500000 
Pt28	 0.199106	 0.310519	 0.000000 
Pt29	 0.128396	 0.432993	 0.000000 
Pt30	 0.224988	 0.407111	 0.500000 
Pt31	 0.102514	 0.336401	 0.500000 
Pt32	 0.005921	 0.362283	 0.000000 
Pt33	 0.901136	 0.225938	 0.000000 
Pt34	 0.031803	 0.458875	 0.500000 
Pt35	 0.875254	 0.129346	 0.500000 
Pt36	 0.830426	 0.348413	 0.000000 
Pt37	 0.759715	 0.470887	 0.000000 
Pt38	 0.856308	 0.445005	 0.500000 
Pt39	 0.733833	 0.374295	 0.500000 
Pt40	 0.637240	 0.400176	 0.000000 
Pt41	 0.566530	 0.522651	 0.000000 
Pt42	 0.663122	 0.496769	 0.500000 
Pt43	 0.540648	 0.426058	 0.500000 
Pt44	 0.444055	 0.451940	 0.000000 
Pt45	 0.373345	 0.574415	 0.000000 
Pt46	 0.469937	 0.548533	 0.500000 
Pt47	 0.347463	 0.477822	 0.500000 
Pt48	 0.250870	 0.503704	 0.000000 
Pt49	 0.180159	 0.626179	 0.000000 
Pt50	 0.276752	 0.600297	 0.500000 
Pt51	 0.154278	 0.529586	 0.500000 
Pt52	 0.057685	 0.555468	 0.000000 
Pt53	 0.952900	 0.419123	 0.000000 
Pt54	 0.083567	 0.652060	 0.500000 
Pt55	 0.927018	 0.322531	 0.500000 
Pt56	 0.882189	 0.541598	 0.000000 
Pt57	 0.811479	 0.664072	 0.000000 
Pt58	 0.908071	 0.638190	 0.500000 
Pt59	 0.785597	 0.567480	 0.500000 
Pt60	 0.689004	 0.593362	 0.000000 
Pt61	 0.618294	 0.715836	 0.000000 
Pt62	 0.714886	 0.689954	 0.500000 
Pt63	 0.592412	 0.619244	 0.500000 
Pt64	 0.495819	 0.645125	 0.000000 
Pt65	 0.425108	 0.767600	 0.000000 
Pt66	 0.521701	 0.741718	 0.500000 
Pt67	 0.399227	 0.671007	 0.500000 
Pt68	 0.302634	 0.696889	 0.000000 
Pt69	 0.231923	 0.819364	 0.000000 
Pt70	 0.328516	 0.793482	 0.500000 
Pt71	 0.206041	 0.722771	 0.500000 
Pt72	 0.109449	 0.748653	 0.000000 
Pt73	 0.135331	 0.845246	 0.500000 
Pt74	 0.978782	 0.515716	 0.500000 
Pt75	 0.933953	 0.734783	 0.000000 
Pt76	 0.863243	 0.857257	 0.000000 
Pt77	 0.959835	 0.831376	 0.500000 
Pt78	 0.837361	 0.760665	 0.500000 
Pt79	 0.740768	 0.786547	 0.000000 
Pt80	 0.670057	 0.909021	 0.000000 
Pt81	 0.766650	 0.883139	 0.500000 
Pt82	 0.644175	 0.812429	 0.500000 
Pt83	 0.547583	 0.838311	 0.000000 
Pt84	 0.476872	 0.960785	 0.000000 
Pt85	 0.573465	 0.934903	 0.500000 
Pt86	 0.450990	 0.864192	 0.500000 
Pt87	 0.354398	 0.890074	 0.000000 
Pt88	 0.380280	 0.986667	 0.500000 
Pt89	 0.257805	 0.915956	 0.500000 
Pt90	 0.161213	 0.941838	 0.000000 
#                 ---end-of-data-block---
