data_Pt structure along [001] nx 7 ny 5 nz 1
_cell_length_a               19.600000
_cell_length_b               19.600000
_cell_length_c               2.771859
_cell_angle_alpha          90.000000
_cell_angle_beta           90.000000
_cell_angle_gamma          90.000000
_symmetry_cell_setting          Triclinic
_symmetry_space_group_name_H-M 'P 1' 
loop_
_atom_site_label
_atom_site_fract_x
_atom_site_fract_y
_atom_site_fract_z
Co1	 0.690212	 0.004355	 0.000000 
Co2	 0.611921	 0.098538	 0.500000 
Co3	 0.497027	 0.056119	 0.000000 
Co4	 0.418736	 0.150302	 0.500000 
Co5	 0.303842	 0.107883	 0.000000 
Co6	 0.225551	 0.202066	 0.500000 
Co7	 0.110657	 0.159647	 0.000000 
Co8	 0.032366	 0.253830	 0.500000 
Co9	 0.805106	 0.046775	 0.500000 
Co10	 0.726815	 0.140958	 0.000000 
Co11	 0.648524	 0.235141	 0.500000 
Co12	 0.533630	 0.192722	 0.000000 
Co13	 0.455338	 0.286905	 0.500000 
Co14	 0.340445	 0.244485	 0.000000 
Co15	 0.262153	 0.338669	 0.500000 
Co16	 0.147259	 0.296249	 0.000000 
Co17	 0.068968	 0.390432	 0.500000 
Co18	 0.841709	 0.183377	 0.500000 
Co19	 0.763417	 0.277560	 0.000000 
Co20	 0.685126	 0.371743	 0.500000 
Co21	 0.570232	 0.329324	 0.000000 
Co22	 0.491941	 0.423507	 0.500000 
Co23	 0.377047	 0.381088	 0.000000 
Co24	 0.298756	 0.475271	 0.500000 
Co25	 0.183862	 0.432852	 0.000000 
Co26	 0.105571	 0.527035	 0.500000 
Co27	 0.878311	 0.319980	 0.500000 
Co28	 0.800020	 0.414163	 0.000000 
Co29	 0.721729	 0.508346	 0.500000 
Co30	 0.606835	 0.465927	 0.000000 
Co31	 0.528544	 0.560110	 0.500000 
Co32	 0.413650	 0.517690	 0.000000 
Co33	 0.335358	 0.611874	 0.500000 
Co34	 0.220465	 0.569454	 0.000000 
Co35	 0.142173	 0.663637	 0.500000 
Co36	 0.027279	 0.621218	 0.000000 
Co37	 0.914914	 0.456582	 0.500000 
Co38	 0.836623	 0.550765	 0.000000 
Co39	 0.758331	 0.644949	 0.500000 
Co40	 0.643437	 0.602529	 0.000000 
Co41	 0.565146	 0.696712	 0.500000 
Co42	 0.450252	 0.654293	 0.000000 
Co43	 0.371961	 0.748476	 0.500000 
Co44	 0.257067	 0.706057	 0.000000 
Co45	 0.178776	 0.800240	 0.500000 
Co46	 0.063882	 0.757821	 0.000000 
Co47	 0.951516	 0.593185	 0.500000 
Co48	 0.873225	 0.687368	 0.000000 
Co49	 0.794934	 0.781551	 0.500000 
Co50	 0.680040	 0.739132	 0.000000 
Co51	 0.601749	 0.833315	 0.500000 
Co52	 0.486855	 0.790896	 0.000000 
Co53	 0.408563	 0.885079	 0.500000 
Co54	 0.293670	 0.842659	 0.000000 
Co55	 0.215378	 0.936842	 0.500000 
Co56	 0.100484	 0.894423	 0.000000 
Co57	 0.988119	 0.729787	 0.500000 
Co58	 0.909828	 0.823970	 0.000000 
Co59	 0.831536	 0.918154	 0.500000 
Co60	 0.716642	 0.875734	 0.000000 
Co61	 0.638351	 0.969917	 0.500000 
Co62	 0.523457	 0.927498	 0.000000 
Co63	 0.330272	 0.979262	 0.000000 
#                 ---end-of-data-block---
