data_Pt structure along [001] nx 5 ny 5 nz 1
_cell_length_a               20.900000
_cell_length_b               20.900000
_cell_length_c               4.180000
_cell_angle_alpha          90.000000
_cell_angle_beta           90.000000
_cell_angle_gamma          90.000000
_symmetry_cell_setting          Triclinic
_symmetry_space_group_name_H-M 'P 1' 
loop_
_atom_site_label
_atom_site_fract_x
_atom_site_fract_y
_atom_site_fract_z
Co1	 0.437979	 0.050410	 0.000000 
Co2	 0.351377	 0.000410	 0.500000 
Co3	 0.301377	 0.087013	 0.000000 
Co4	 0.387979	 0.137013	 0.500000 
Co5	 0.337979	 0.223615	 0.000000 
Co6	 0.251377	 0.173615	 0.500000 
Co7	 0.201377	 0.260218	 0.000000 
Co8	 0.287979	 0.310218	 0.500000 
Co9	 0.237979	 0.396821	 0.000000 
Co10	 0.151377	 0.346821	 0.500000 
Co11	 0.101377	 0.433423	 0.000000 
Co12	 0.187979	 0.483423	 0.500000 
Co13	 0.137979	 0.570026	 0.000000 
Co14	 0.051377	 0.520026	 0.500000 
Co15	 0.001377	 0.606628	 0.000000 
Co16	 0.087979	 0.656628	 0.500000 
Co17	 0.037979	 0.743231	 0.000000 
Co18	 0.574582	 0.013808	 0.000000 
Co19	 0.661184	 0.063808	 0.500000 
Co20	 0.611184	 0.150410	 0.000000 
Co21	 0.524582	 0.100410	 0.500000 
Co22	 0.474582	 0.187013	 0.000000 
Co23	 0.561184	 0.237013	 0.500000 
Co24	 0.511184	 0.323615	 0.000000 
Co25	 0.424582	 0.273615	 0.500000 
Co26	 0.374582	 0.360218	 0.000000 
Co27	 0.461184	 0.410218	 0.500000 
Co28	 0.411184	 0.496821	 0.000000 
Co29	 0.324582	 0.446821	 0.500000 
Co30	 0.274582	 0.533423	 0.000000 
Co31	 0.361184	 0.583423	 0.500000 
Co32	 0.311184	 0.670026	 0.000000 
Co33	 0.224582	 0.620026	 0.500000 
Co34	 0.174582	 0.706628	 0.000000 
Co35	 0.261184	 0.756628	 0.500000 
Co36	 0.211184	 0.843231	 0.000000 
Co37	 0.124582	 0.793231	 0.500000 
Co38	 0.747787	 0.113808	 0.000000 
Co39	 0.834389	 0.163808	 0.500000 
Co40	 0.784389	 0.250410	 0.000000 
Co41	 0.697787	 0.200410	 0.500000 
Co42	 0.647787	 0.287013	 0.000000 
Co43	 0.734389	 0.337013	 0.500000 
Co44	 0.684389	 0.423615	 0.000000 
Co45	 0.597787	 0.373615	 0.500000 
Co46	 0.547787	 0.460218	 0.000000 
Co47	 0.634389	 0.510218	 0.500000 
Co48	 0.584389	 0.596821	 0.000000 
Co49	 0.497787	 0.546821	 0.500000 
Co50	 0.447787	 0.633423	 0.000000 
Co51	 0.534389	 0.683423	 0.500000 
Co52	 0.484389	 0.770026	 0.000000 
Co53	 0.397787	 0.720026	 0.500000 
Co54	 0.347787	 0.806628	 0.000000 
Co55	 0.434389	 0.856628	 0.500000 
Co56	 0.384389	 0.943231	 0.000000 
Co57	 0.297787	 0.893231	 0.500000 
Co58	 0.920992	 0.213808	 0.000000 
Co59	 0.957594	 0.350410	 0.000000 
Co60	 0.870992	 0.300410	 0.500000 
Co61	 0.820992	 0.387013	 0.000000 
Co62	 0.907594	 0.437013	 0.500000 
Co63	 0.857594	 0.523615	 0.000000 
Co64	 0.770992	 0.473615	 0.500000 
Co65	 0.720992	 0.560218	 0.000000 
Co66	 0.807594	 0.610218	 0.500000 
Co67	 0.757594	 0.696821	 0.000000 
Co68	 0.670992	 0.646821	 0.500000 
Co69	 0.620992	 0.733423	 0.000000 
Co70	 0.707594	 0.783423	 0.500000 
Co71	 0.657594	 0.870026	 0.000000 
Co72	 0.570992	 0.820026	 0.500000 
Co73	 0.520992	 0.906628	 0.000000 
Co74	 0.607594	 0.956628	 0.500000 
Co75	 0.470992	 0.993231	 0.500000 
Co76	 0.994197	 0.487013	 0.000000 
Co77	 0.214774	 0.037013	 0.500000 
Co78	 0.164774	 0.123615	 0.000000 
Co79	 0.944197	 0.573615	 0.500000 
Co80	 0.894197	 0.660218	 0.000000 
Co81	 0.114774	 0.210218	 0.500000 
Co82	 0.064774	 0.296821	 0.000000 
Co83	 0.844197	 0.746821	 0.500000 
Co84	 0.794197	 0.833423	 0.000000 
Co85	 0.014774	 0.383423	 0.500000 
Co86	 0.744197	 0.920026	 0.500000 
#                 ---end-of-data-block---
