data_Pt structure along [001] nx 5 ny 5 nz 1
_cell_length_a               20.900000
_cell_length_b               20.900000
_cell_length_c               4.180000
_cell_angle_alpha          90.000000
_cell_angle_beta           90.000000
_cell_angle_gamma          90.000000
_symmetry_cell_setting          Triclinic
_symmetry_space_group_name_H-M 'P 1' 
loop_
_atom_site_label
_atom_site_fract_x
_atom_site_fract_y
_atom_site_fract_z
Co1	 0.716063	 0.033315	 0.000000 
Co2	 0.741945	 0.129908	 0.500000 
Co3	 0.645352	 0.155790	 0.000000 
Co4	 0.619470	 0.059197	 0.500000 
Co5	 0.522878	 0.085079	 0.000000 
Co6	 0.548760	 0.181672	 0.500000 
Co7	 0.452167	 0.207554	 0.000000 
Co8	 0.426285	 0.110961	 0.500000 
Co9	 0.329693	 0.136843	 0.000000 
Co10	 0.355575	 0.233436	 0.500000 
Co11	 0.258982	 0.259318	 0.000000 
Co12	 0.233100	 0.162725	 0.500000 
Co13	 0.136507	 0.188607	 0.000000 
Co14	 0.162389	 0.285199	 0.500000 
Co15	 0.065797	 0.311081	 0.000000 
Co16	 0.039915	 0.214489	 0.500000 
Co17	 0.838537	 0.104026	 0.000000 
Co18	 0.812656	 0.007434	 0.500000 
Co19	 0.767827	 0.226501	 0.000000 
Co20	 0.793709	 0.323093	 0.500000 
Co21	 0.697116	 0.348975	 0.000000 
Co22	 0.671234	 0.252383	 0.500000 
Co23	 0.574642	 0.278264	 0.000000 
Co24	 0.600523	 0.374857	 0.500000 
Co25	 0.503931	 0.400739	 0.000000 
Co26	 0.478049	 0.304146	 0.500000 
Co27	 0.381456	 0.330028	 0.000000 
Co28	 0.407338	 0.426621	 0.500000 
Co29	 0.310746	 0.452503	 0.000000 
Co30	 0.284864	 0.355910	 0.500000 
Co31	 0.188271	 0.381792	 0.000000 
Co32	 0.214153	 0.478385	 0.500000 
Co33	 0.117561	 0.504267	 0.000000 
Co34	 0.091679	 0.407674	 0.500000 
Co35	 0.020968	 0.530148	 0.500000 
Co36	 0.890301	 0.297211	 0.000000 
Co37	 0.864419	 0.200619	 0.500000 
Co38	 0.819591	 0.419686	 0.000000 
Co39	 0.845472	 0.516278	 0.500000 
Co40	 0.748880	 0.542160	 0.000000 
Co41	 0.722998	 0.445568	 0.500000 
Co42	 0.626405	 0.471450	 0.000000 
Co43	 0.652287	 0.568042	 0.500000 
Co44	 0.555695	 0.593924	 0.000000 
Co45	 0.529813	 0.497332	 0.500000 
Co46	 0.433220	 0.523213	 0.000000 
Co47	 0.459102	 0.619806	 0.500000 
Co48	 0.362510	 0.645688	 0.000000 
Co49	 0.336628	 0.549095	 0.500000 
Co50	 0.240035	 0.574977	 0.000000 
Co51	 0.265917	 0.671570	 0.500000 
Co52	 0.169324	 0.697452	 0.000000 
Co53	 0.143442	 0.600859	 0.500000 
Co54	 0.046850	 0.626741	 0.000000 
Co55	 0.072732	 0.723334	 0.500000 
Co56	 0.942065	 0.490396	 0.000000 
Co57	 0.916183	 0.393804	 0.500000 
Co58	 0.871354	 0.612871	 0.000000 
Co59	 0.897236	 0.709464	 0.500000 
Co60	 0.800644	 0.735345	 0.000000 
Co61	 0.774762	 0.638753	 0.500000 
Co62	 0.678169	 0.664635	 0.000000 
Co63	 0.704051	 0.761227	 0.500000 
Co64	 0.607459	 0.787109	 0.000000 
Co65	 0.581577	 0.690517	 0.500000 
Co66	 0.484984	 0.716399	 0.000000 
Co67	 0.510866	 0.812991	 0.500000 
Co68	 0.414273	 0.838873	 0.000000 
Co69	 0.388391	 0.742281	 0.500000 
Co70	 0.291799	 0.768162	 0.000000 
Co71	 0.317681	 0.864755	 0.500000 
Co72	 0.221088	 0.890637	 0.000000 
Co73	 0.195206	 0.794044	 0.500000 
Co74	 0.098614	 0.819926	 0.000000 
Co75	 0.124496	 0.916519	 0.500000 
Co76	 0.993829	 0.683582	 0.000000 
Co77	 0.967947	 0.586989	 0.500000 
Co78	 0.923118	 0.806056	 0.000000 
Co79	 0.826526	 0.831938	 0.500000 
Co80	 0.729933	 0.857820	 0.000000 
Co81	 0.400403	 0.014369	 0.000000 
Co82	 0.633340	 0.883702	 0.500000 
Co83	 0.536748	 0.909584	 0.000000 
Co84	 0.303811	 0.040251	 0.500000 
Co85	 0.207218	 0.066132	 0.000000 
Co86	 0.440155	 0.935466	 0.500000 
Co87	 0.343563	 0.961348	 0.000000 
Co88	 0.110626	 0.092014	 0.500000 
Co89	 0.014033	 0.117896	 0.000000 
Co90	 0.246970	 0.987229	 0.500000 
#                 ---end-of-data-block---
