data_NiO [110] nx 4 ny 3 nz 1
_cell_length_a               21.732000
_cell_length_b               21.732000
_cell_length_c               2.957500
_cell_angle_alpha          90.000000
_cell_angle_beta           90.000000
_cell_angle_gamma          90.000000
_symmetry_cell_setting          Triclinic
_symmetry_space_group_name_H-M 'P 1' 
loop_
_atom_site_label
_atom_site_fract_x
_atom_site_fract_y
_atom_site_fract_z
Ni1	 0.642988	 0.306300	 1.000000 
Ni2	 0.531871	 0.227728	 0.000000 
Ni3	 0.420755	 0.384870	 0.000000 
Ni4	 0.420755	 0.267014	 0.500000 
Ni5	 0.642988	 0.188444	 0.500000 
Ni6	 0.531871	 0.345584	 0.500000 
Ni7	 0.309655	 0.306300	 1.000000 
Ni8	 0.198538	 0.227728	 0.000000 
Ni9	 0.087421	 0.384870	 0.000000 
Ni10	 0.087421	 0.267014	 0.500000 
Ni11	 0.309655	 0.188444	 0.500000 
Ni12	 0.198538	 0.345584	 0.500000 
Ni13	 0.976321	 0.306300	 1.000000 
Ni14	 0.865205	 0.227728	 0.000000 
Ni15	 0.754088	 0.384870	 0.000000 
Ni16	 0.754088	 0.267014	 0.500000 
Ni17	 0.976321	 0.188444	 0.500000 
Ni18	 0.865205	 0.345584	 0.500000 
Ni19	 0.642988	 0.542013	 1.000000 
Ni20	 0.531871	 0.463440	 0.000000 
Ni21	 0.420755	 0.620582	 0.000000 
Ni22	 0.420755	 0.502726	 0.500000 
Ni23	 0.642988	 0.424156	 0.500000 
Ni24	 0.531871	 0.581296	 0.500000 
Ni25	 0.309655	 0.542013	 1.000000 
Ni26	 0.198538	 0.463440	 0.000000 
Ni27	 0.087421	 0.620582	 0.000000 
Ni28	 0.087421	 0.502726	 0.500000 
Ni29	 0.309655	 0.424156	 0.500000 
Ni30	 0.198538	 0.581296	 0.500000 
Ni31	 0.976321	 0.542013	 1.000000 
Ni32	 0.865205	 0.463440	 0.000000 
Ni33	 0.754088	 0.620582	 0.000000 
Ni34	 0.754088	 0.502726	 0.500000 
Ni35	 0.976321	 0.424156	 0.500000 
Ni36	 0.865205	 0.581296	 0.500000 
Ni37	 0.642988	 0.777725	 1.000000 
Ni38	 0.531871	 0.699152	 0.000000 
Ni39	 0.420755	 0.856295	 0.000000 
Ni40	 0.420755	 0.738439	 0.500000 
Ni41	 0.642988	 0.659869	 0.500000 
Ni42	 0.531871	 0.817009	 0.500000 
Ni43	 0.309655	 0.777725	 1.000000 
Ni44	 0.198538	 0.699152	 0.000000 
Ni45	 0.087421	 0.856295	 0.000000 
Ni46	 0.087421	 0.738439	 0.500000 
Ni47	 0.309655	 0.659869	 0.500000 
Ni48	 0.198538	 0.817009	 0.500000 
Ni49	 0.976321	 0.777725	 1.000000 
Ni50	 0.865205	 0.699152	 0.000000 
Ni51	 0.754088	 0.856295	 0.000000 
Ni52	 0.754088	 0.738439	 0.500000 
Ni53	 0.976321	 0.659869	 0.500000 
Ni54	 0.865205	 0.817009	 0.500000 
Ni55	 0.642988	 0.070588	 1.000000 
Ni56	 0.531871	 0.934865	 0.000000 
Ni57	 0.420755	 0.149158	 0.000000 
Ni58	 0.420755	 0.031302	 0.500000 
Ni59	 0.642988	 0.895581	 0.500000 
Ni60	 0.531871	 0.109872	 0.500000 
Ni61	 0.309655	 0.070588	 1.000000 
Ni62	 0.198538	 0.934865	 0.000000 
Ni63	 0.087421	 0.149158	 0.000000 
Ni64	 0.087421	 0.031302	 0.500000 
Ni65	 0.309655	 0.895581	 0.500000 
Ni66	 0.198538	 0.109872	 0.500000 
Ni67	 0.976321	 0.070588	 1.000000 
Ni68	 0.865205	 0.934865	 0.000000 
Ni69	 0.754088	 0.149158	 0.000000 
Ni70	 0.754088	 0.031302	 0.500000 
Ni71	 0.976321	 0.895581	 0.500000 
Ni72	 0.865205	 0.109872	 0.500000 
#                 ---end-of-data-block---
