data_TiO2_rutile [100] nx 7 ny 4 nz 1
_cell_length_a               20.713000
_cell_length_b               20.713000
_cell_length_c               4.594000
_cell_angle_alpha          90.000000
_cell_angle_beta           90.000000
_cell_angle_gamma          90.000000
_symmetry_cell_setting          Triclinic
_symmetry_space_group_name_H-M 'P 1' 
loop_
_atom_site_label
_atom_site_fract_x
_atom_site_fract_y
_atom_site_fract_z
Ti1	 0.086083	 0.247647	 0.000000 
Ti2	 0.183780	 0.159016	 0.500000 
Ti3	 0.028679	 0.461882	 0.000000 
Ti4	 0.126376	 0.373252	 0.500000 
Ti5	 0.068971	 0.587487	 0.500000 
Ti6	 0.143487	 0.033411	 0.000000 
Ti7	 0.011567	 0.801723	 0.500000 
Ti8	 0.224073	 0.284621	 0.000000 
Ti9	 0.321769	 0.195990	 0.500000 
Ti10	 0.166668	 0.498857	 0.000000 
Ti11	 0.264365	 0.410226	 0.500000 
Ti12	 0.109264	 0.713092	 0.000000 
Ti13	 0.206961	 0.624461	 0.500000 
Ti14	 0.281477	 0.070385	 0.000000 
Ti15	 0.149557	 0.838697	 0.500000 
Ti16	 0.362062	 0.321595	 0.000000 
Ti17	 0.459759	 0.232964	 0.500000 
Ti18	 0.304658	 0.535831	 0.000000 
Ti19	 0.402355	 0.447200	 0.500000 
Ti20	 0.247253	 0.750066	 0.000000 
Ti21	 0.344950	 0.661436	 0.500000 
Ti22	 0.419466	 0.107359	 0.000000 
Ti23	 0.287546	 0.875671	 0.500000 
Ti24	 0.500051	 0.358569	 0.000000 
Ti25	 0.597748	 0.269938	 0.500000 
Ti26	 0.442647	 0.572805	 0.000000 
Ti27	 0.540344	 0.484174	 0.500000 
Ti28	 0.385243	 0.787041	 0.000000 
Ti29	 0.482940	 0.698410	 0.500000 
Ti30	 0.557456	 0.144334	 0.000000 
Ti31	 0.425535	 0.912645	 0.500000 
Ti32	 0.638041	 0.395543	 0.000000 
Ti33	 0.735738	 0.306913	 0.500000 
Ti34	 0.580637	 0.609779	 0.000000 
Ti35	 0.678333	 0.521148	 0.500000 
Ti36	 0.523232	 0.824015	 0.000000 
Ti37	 0.620929	 0.735384	 0.500000 
Ti38	 0.695445	 0.181308	 0.000000 
Ti39	 0.563525	 0.949620	 0.500000 
Ti40	 0.776030	 0.432518	 0.000000 
Ti41	 0.873727	 0.343887	 0.500000 
Ti42	 0.718626	 0.646753	 0.000000 
Ti43	 0.816323	 0.558122	 0.500000 
Ti44	 0.661222	 0.860989	 0.000000 
Ti45	 0.758919	 0.772358	 0.500000 
Ti46	 0.833434	 0.218282	 0.000000 
Ti47	 0.701514	 0.986594	 0.500000 
Ti48	 0.914020	 0.469492	 0.000000 
Ti49	 0.856615	 0.683727	 0.000000 
Ti50	 0.954312	 0.595097	 0.500000 
Ti51	 0.799211	 0.897963	 0.000000 
Ti52	 0.896908	 0.809332	 0.500000 
Ti53	 0.971424	 0.255256	 0.000000 
#                 ---end-of-data-block---
