data_Si [110] nx 5 ny 4 nz 1
_cell_length_a               21.720000
_cell_length_b               21.720000
_cell_length_c               3.839590
_cell_angle_alpha          90.000000
_cell_angle_beta           90.000000
_cell_angle_gamma          90.000000
_symmetry_cell_setting          Triclinic
_symmetry_space_group_name_H-M 'P 1' 
loop_
_atom_site_label
_atom_site_fract_x
_atom_site_fract_y
_atom_site_fract_z
Si1	 0.361831	 0.140714	 0.000000 
Si2	 0.406025	 0.096520	 0.500000 
Si3	 0.255137	 0.122408	 0.000000 
Si4	 0.185054	 0.317491	 0.000000 
Si5	 0.210943	 0.166602	 0.500000 
Si6	 0.229249	 0.273296	 0.500000 
Si7	 0.078360	 0.299185	 0.000000 
Si8	 0.008278	 0.494267	 0.000000 
Si9	 0.034166	 0.343379	 0.500000 
Si10	 0.052472	 0.450073	 0.500000 
Si11	 0.556914	 0.070631	 0.000000 
Si12	 0.486831	 0.265714	 0.000000 
Si13	 0.512720	 0.114826	 0.500000 
Si14	 0.531025	 0.221520	 0.500000 
Si15	 0.380137	 0.247408	 0.000000 
Si16	 0.310054	 0.442491	 0.000000 
Si17	 0.335943	 0.291602	 0.500000 
Si18	 0.354249	 0.398296	 0.500000 
Si19	 0.203360	 0.424185	 0.000000 
Si20	 0.133278	 0.619267	 0.000000 
Si21	 0.159166	 0.468379	 0.500000 
Si22	 0.177472	 0.575073	 0.500000 
Si23	 0.026584	 0.600961	 0.000000 
Si24	 0.663608	 0.088937	 0.000000 
Si25	 0.707802	 0.044743	 0.500000 
Si26	 0.681914	 0.195631	 0.000000 
Si27	 0.611831	 0.390714	 0.000000 
Si28	 0.637720	 0.239826	 0.500000 
Si29	 0.656025	 0.346520	 0.500000 
Si30	 0.505137	 0.372408	 0.000000 
Si31	 0.435054	 0.567491	 0.000000 
Si32	 0.460943	 0.416602	 0.500000 
Si33	 0.479249	 0.523296	 0.500000 
Si34	 0.328360	 0.549185	 0.000000 
Si35	 0.258278	 0.744267	 0.000000 
Si36	 0.284166	 0.593379	 0.500000 
Si37	 0.302472	 0.700073	 0.500000 
Si38	 0.151584	 0.725961	 0.000000 
Si39	 0.788608	 0.213937	 0.000000 
Si40	 0.107389	 0.770156	 0.500000 
Si41	 0.832802	 0.169743	 0.500000 
Si42	 0.806914	 0.320631	 0.000000 
Si43	 0.736831	 0.515714	 0.000000 
Si44	 0.762720	 0.364826	 0.500000 
Si45	 0.781025	 0.471520	 0.500000 
Si46	 0.630137	 0.497408	 0.000000 
Si47	 0.560054	 0.692491	 0.000000 
Si48	 0.585943	 0.541602	 0.500000 
Si49	 0.604249	 0.648296	 0.500000 
Si50	 0.453360	 0.674185	 0.000000 
Si51	 0.383278	 0.869267	 0.000000 
Si52	 0.409166	 0.718379	 0.500000 
Si53	 0.427472	 0.825073	 0.500000 
Si54	 0.276584	 0.850961	 0.000000 
Si55	 0.913608	 0.338937	 0.000000 
Si56	 0.232389	 0.895156	 0.500000 
Si57	 0.957802	 0.294743	 0.500000 
Si58	 0.931914	 0.445631	 0.000000 
Si59	 0.861831	 0.640714	 0.000000 
Si60	 0.887720	 0.489826	 0.500000 
Si61	 0.906025	 0.596520	 0.500000 
Si62	 0.755137	 0.622408	 0.000000 
Si63	 0.685054	 0.817491	 0.000000 
Si64	 0.710943	 0.666602	 0.500000 
Si65	 0.729249	 0.773296	 0.500000 
Si66	 0.578360	 0.799185	 0.000000 
Si67	 0.508278	 0.994267	 0.000000 
Si68	 0.534166	 0.843379	 0.500000 
Si69	 0.552472	 0.950073	 0.500000 
Si70	 0.401584	 0.975961	 0.000000 
#                 ---end-of-data-block---
