data_STO [001]5x5x1
_cell_length_a               19.525000
_cell_length_b               19.525000
_cell_length_c               3.905000
_cell_angle_alpha          90.000000
_cell_angle_beta           90.000000
_cell_angle_gamma          90.000000
_symmetry_cell_setting          Triclinic
_symmetry_space_group_name_H-M 'P 1' 
loop_
_atom_site_label
_atom_site_fract_x
_atom_site_fract_y
_atom_site_fract_z
Ti1	 0.233175	 0.113632	 0.500000 
Sr2	 0.110700	 0.184343	 0.000000 
Ti3	 0.181411	 0.306817	 0.500000 
Sr4	 0.058936	 0.377528	 0.000000 
Ti5	 0.129647	 0.500002	 0.500000 
Sr6	 0.007173	 0.570713	 0.000000 
Ti7	 0.077883	 0.693188	 0.500000 
Ti8	 0.026119	 0.886373	 0.500000 
Sr9	 0.355649	 0.042921	 0.000000 
Ti10	 0.426360	 0.165396	 0.500000 
Sr11	 0.303885	 0.236107	 0.000000 
Ti12	 0.374596	 0.358581	 0.500000 
Sr13	 0.252122	 0.429292	 0.000000 
Ti14	 0.322832	 0.551766	 0.500000 
Sr15	 0.200358	 0.622477	 0.000000 
Ti16	 0.271068	 0.744951	 0.500000 
Sr17	 0.148594	 0.815662	 0.000000 
Ti18	 0.219305	 0.938137	 0.500000 
Sr19	 0.548834	 0.094685	 0.000000 
Ti20	 0.619545	 0.217160	 0.500000 
Sr21	 0.497070	 0.287870	 0.000000 
Ti22	 0.567781	 0.410345	 0.500000 
Sr23	 0.445307	 0.481056	 0.000000 
Ti24	 0.516017	 0.603530	 0.500000 
Sr25	 0.393543	 0.674241	 0.000000 
Ti26	 0.464254	 0.796715	 0.500000 
Sr27	 0.341779	 0.867426	 0.000000 
Ti28	 0.412490	 0.989900	 0.500000 
Sr29	 0.742019	 0.146449	 0.000000 
Ti30	 0.812730	 0.268923	 0.500000 
Sr31	 0.690256	 0.339634	 0.000000 
Ti32	 0.760966	 0.462109	 0.500000 
Sr33	 0.638492	 0.532819	 0.000000 
Ti34	 0.709203	 0.655294	 0.500000 
Sr35	 0.586728	 0.726004	 0.000000 
Ti36	 0.657439	 0.848479	 0.500000 
Sr37	 0.534964	 0.919190	 0.000000 
Sr38	 0.935205	 0.198213	 0.000000 
Sr39	 0.883441	 0.391398	 0.000000 
Ti40	 0.954151	 0.513872	 0.500000 
Sr41	 0.831677	 0.584583	 0.000000 
Ti42	 0.902388	 0.707058	 0.500000 
Sr43	 0.779913	 0.777768	 0.000000 
Ti44	 0.850624	 0.900243	 0.500000 
Sr45	 0.728149	 0.970953	 0.000000 
#                 ---end-of-data-block---
