data_STO [001]5x5x1
_cell_length_a               19.525000
_cell_length_b               19.525000
_cell_length_c               3.905000
_cell_angle_alpha          90.000000
_cell_angle_beta           90.000000
_cell_angle_gamma          90.000000
_symmetry_cell_setting          Triclinic
_symmetry_space_group_name_H-M 'P 1' 
loop_
_atom_site_label
_atom_site_fract_x
_atom_site_fract_y
_atom_site_fract_z
Ti1	 0.617342	 0.050202	 0.500000 
Sr2	 0.480739	 0.013599	 0.000000 
Ti3	 0.444136	 0.150202	 0.500000 
Sr4	 0.307534	 0.113599	 0.000000 
Ti5	 0.270931	 0.250202	 0.500000 
Sr6	 0.134329	 0.213599	 0.000000 
Ti7	 0.097726	 0.350202	 0.500000 
Sr8	 0.753944	 0.086804	 0.000000 
Ti9	 0.717342	 0.223407	 0.500000 
Sr10	 0.580739	 0.186804	 0.000000 
Ti11	 0.544136	 0.323407	 0.500000 
Sr12	 0.407534	 0.286804	 0.000000 
Ti13	 0.370931	 0.423407	 0.500000 
Sr14	 0.234329	 0.386804	 0.000000 
Ti15	 0.197726	 0.523407	 0.500000 
Sr16	 0.061124	 0.486804	 0.000000 
Ti17	 0.024521	 0.623407	 0.500000 
Sr18	 0.853944	 0.260009	 0.000000 
Ti19	 0.817342	 0.396612	 0.500000 
Sr20	 0.680739	 0.360009	 0.000000 
Ti21	 0.644136	 0.496612	 0.500000 
Sr22	 0.507534	 0.460009	 0.000000 
Ti23	 0.470931	 0.596612	 0.500000 
Sr24	 0.334329	 0.560009	 0.000000 
Ti25	 0.297726	 0.696612	 0.500000 
Sr26	 0.161124	 0.660009	 0.000000 
Ti27	 0.124521	 0.796612	 0.500000 
Sr28	 0.953944	 0.433214	 0.000000 
Ti29	 0.917342	 0.569817	 0.500000 
Sr30	 0.780739	 0.533214	 0.000000 
Ti31	 0.744136	 0.669817	 0.500000 
Sr32	 0.607534	 0.633214	 0.000000 
Ti33	 0.570931	 0.769817	 0.500000 
Sr34	 0.434329	 0.733214	 0.000000 
Ti35	 0.397726	 0.869817	 0.500000 
Sr36	 0.261124	 0.833214	 0.000000 
Ti37	 0.224521	 0.969817	 0.500000 
Sr38	 0.880739	 0.706420	 0.000000 
Ti39	 0.844136	 0.843022	 0.500000 
Sr40	 0.707534	 0.806420	 0.000000 
Ti41	 0.670931	 0.943022	 0.500000 
Sr42	 0.534329	 0.906420	 0.000000 
#                 ---end-of-data-block---
