data_Pt structure along [001] nx 4 ny 5 nz 1
_cell_length_a               22.090016
_cell_length_b               22.090016
_cell_length_c               5.543717
_cell_angle_alpha          90.000000
_cell_angle_beta           90.000000
_cell_angle_gamma          90.000000
_symmetry_cell_setting          Triclinic
_symmetry_space_group_name_H-M 'P 1' 
loop_
_atom_site_label
_atom_site_fract_x
_atom_site_fract_y
_atom_site_fract_z
Ti1	 0.296838	 0.142136	 0.000000 
Sr2	 0.449285	 0.128089	 0.000000 
Ti3	 0.405091	 0.204636	 0.500000 
Sr4	 0.341032	 0.065589	 0.500000 
Ti5	 0.208450	 0.295229	 0.000000 
Sr6	 0.360897	 0.281182	 0.000000 
Ti7	 0.316703	 0.357729	 0.500000 
Sr8	 0.252644	 0.218682	 0.500000 
Ti9	 0.120061	 0.448322	 0.000000 
Sr10	 0.272509	 0.434275	 0.000000 
Ti11	 0.228315	 0.510822	 0.500000 
Sr12	 0.164256	 0.371775	 0.500000 
Ti13	 0.031673	 0.601415	 0.000000 
Sr14	 0.184120	 0.587369	 0.000000 
Ti15	 0.139926	 0.663915	 0.500000 
Sr16	 0.075867	 0.524869	 0.500000 
Sr17	 0.095732	 0.740462	 0.000000 
Ti18	 0.493480	 0.051543	 0.500000 
Ti19	 0.513344	 0.267136	 0.000000 
Sr20	 0.665792	 0.253089	 0.000000 
Ti21	 0.621598	 0.329636	 0.500000 
Sr22	 0.557539	 0.190589	 0.500000 
Ti23	 0.424956	 0.420229	 0.000000 
Sr24	 0.577403	 0.406182	 0.000000 
Ti25	 0.533209	 0.482729	 0.500000 
Sr26	 0.469150	 0.343682	 0.500000 
Ti27	 0.336568	 0.573322	 0.000000 
Sr28	 0.489015	 0.559275	 0.000000 
Ti29	 0.444821	 0.635822	 0.500000 
Sr30	 0.380762	 0.496775	 0.500000 
Ti31	 0.248179	 0.726415	 0.000000 
Sr32	 0.400627	 0.712369	 0.000000 
Ti33	 0.356433	 0.788915	 0.500000 
Sr34	 0.292374	 0.649869	 0.500000 
Ti35	 0.601733	 0.114043	 0.000000 
Sr36	 0.312238	 0.865462	 0.000000 
Ti37	 0.709986	 0.176543	 0.500000 
Sr38	 0.203985	 0.802962	 0.500000 
Ti39	 0.729851	 0.392136	 0.000000 
Sr40	 0.882298	 0.378089	 0.000000 
Ti41	 0.838104	 0.454636	 0.500000 
Sr42	 0.774045	 0.315589	 0.500000 
Ti43	 0.641462	 0.545229	 0.000000 
Sr44	 0.793910	 0.531182	 0.000000 
Ti45	 0.749716	 0.607729	 0.500000 
Sr46	 0.685657	 0.468682	 0.500000 
Ti47	 0.553074	 0.698322	 0.000000 
Sr48	 0.705521	 0.684275	 0.000000 
Ti49	 0.661327	 0.760822	 0.500000 
Sr50	 0.597268	 0.621775	 0.500000 
Ti51	 0.464686	 0.851415	 0.000000 
Sr52	 0.617133	 0.837369	 0.000000 
Ti53	 0.572939	 0.913915	 0.500000 
Sr54	 0.508880	 0.774869	 0.500000 
Ti55	 0.818239	 0.239043	 0.000000 
Sr56	 0.528745	 0.990462	 0.000000 
Ti57	 0.926492	 0.301543	 0.500000 
Sr58	 0.420492	 0.927962	 0.500000 
Ti59	 0.946357	 0.517136	 0.000000 
Sr60	 0.232779	 0.003089	 0.000000 
Ti61	 0.188585	 0.079636	 0.500000 
Sr62	 0.990551	 0.440589	 0.500000 
Ti63	 0.857969	 0.670229	 0.000000 
Sr64	 0.144391	 0.156182	 0.000000 
Ti65	 0.100197	 0.232729	 0.500000 
Sr66	 0.902163	 0.593682	 0.500000 
Ti67	 0.769580	 0.823322	 0.000000 
Sr68	 0.056002	 0.309275	 0.000000 
Ti69	 0.011808	 0.385822	 0.500000 
Sr70	 0.813775	 0.746775	 0.500000 
Ti71	 0.681192	 0.976415	 0.000000 
Sr72	 0.725386	 0.899869	 0.500000 
#                 ---end-of-data-block---
