data_Pt structure along [001] nx 4 ny 5 nz 1
_cell_length_a               22.090016
_cell_length_b               22.090016
_cell_length_c               5.543717
_cell_angle_alpha          90.000000
_cell_angle_beta           90.000000
_cell_angle_gamma          90.000000
_symmetry_cell_setting          Triclinic
_symmetry_space_group_name_H-M 'P 1' 
loop_
_atom_site_label
_atom_site_fract_x
_atom_site_fract_y
_atom_site_fract_z
Ti1	 0.482721	 0.003856	 0.000000 
Sr2	 0.633609	 0.029744	 0.000000 
Ti3	 0.571109	 0.092244	 0.500000 
Ti4	 0.357721	 0.128856	 0.000000 
Sr5	 0.508609	 0.154744	 0.000000 
Ti6	 0.446109	 0.217244	 0.500000 
Sr7	 0.420221	 0.066356	 0.500000 
Ti8	 0.232721	 0.253856	 0.000000 
Sr9	 0.383609	 0.279744	 0.000000 
Ti10	 0.321109	 0.342244	 0.500000 
Sr11	 0.295221	 0.191356	 0.500000 
Ti12	 0.107721	 0.378856	 0.000000 
Sr13	 0.258609	 0.404744	 0.000000 
Ti14	 0.196109	 0.467244	 0.500000 
Sr15	 0.170221	 0.316356	 0.500000 
Sr16	 0.133609	 0.529744	 0.000000 
Ti17	 0.071109	 0.592244	 0.500000 
Sr18	 0.045221	 0.441356	 0.500000 
Ti19	 0.659497	 0.180633	 0.000000 
Sr20	 0.810386	 0.206521	 0.000000 
Ti21	 0.747886	 0.269021	 0.500000 
Sr22	 0.721997	 0.118133	 0.500000 
Ti23	 0.534497	 0.305633	 0.000000 
Sr24	 0.685386	 0.331521	 0.000000 
Ti25	 0.622886	 0.394021	 0.500000 
Sr26	 0.596997	 0.243133	 0.500000 
Ti27	 0.409497	 0.430633	 0.000000 
Sr28	 0.560386	 0.456521	 0.000000 
Ti29	 0.497886	 0.519021	 0.500000 
Sr30	 0.471997	 0.368133	 0.500000 
Ti31	 0.284497	 0.555633	 0.000000 
Sr32	 0.435386	 0.581521	 0.000000 
Ti33	 0.372886	 0.644021	 0.500000 
Sr34	 0.346997	 0.493133	 0.500000 
Ti35	 0.159497	 0.680633	 0.000000 
Sr36	 0.310386	 0.706521	 0.000000 
Ti37	 0.247886	 0.769021	 0.500000 
Sr38	 0.221997	 0.618133	 0.500000 
Ti39	 0.836274	 0.357409	 0.000000 
Sr40	 0.987162	 0.383298	 0.000000 
Ti41	 0.924662	 0.445798	 0.500000 
Sr42	 0.898774	 0.294909	 0.500000 
Ti43	 0.711274	 0.482409	 0.000000 
Sr44	 0.862162	 0.508298	 0.000000 
Ti45	 0.799662	 0.570798	 0.500000 
Sr46	 0.773774	 0.419909	 0.500000 
Ti47	 0.586274	 0.607409	 0.000000 
Sr48	 0.737162	 0.633298	 0.000000 
Ti49	 0.674662	 0.695798	 0.500000 
Sr50	 0.648774	 0.544909	 0.500000 
Ti51	 0.461274	 0.732409	 0.000000 
Sr52	 0.612162	 0.758298	 0.000000 
Ti53	 0.549662	 0.820798	 0.500000 
Sr54	 0.523774	 0.669909	 0.500000 
Ti55	 0.336274	 0.857409	 0.000000 
Sr56	 0.487162	 0.883298	 0.000000 
Ti57	 0.424662	 0.945798	 0.500000 
Sr58	 0.398774	 0.794909	 0.500000 
Ti59	 0.888051	 0.659186	 0.000000 
Ti60	 0.269332	 0.040468	 0.500000 
Sr61	 0.950551	 0.596686	 0.500000 
Ti62	 0.763051	 0.784186	 0.000000 
Sr63	 0.206832	 0.102968	 0.000000 
Ti64	 0.144332	 0.165468	 0.500000 
Sr65	 0.825551	 0.721686	 0.500000 
Ti66	 0.638051	 0.909186	 0.000000 
Sr67	 0.081832	 0.227968	 0.000000 
Ti68	 0.019332	 0.290468	 0.500000 
Sr69	 0.700551	 0.846686	 0.500000 
Sr70	 0.575551	 0.971686	 0.500000 
#                 ---end-of-data-block---
