data_Pt structure along [001] nx 4 ny 5 nz 1
_cell_length_a               22.090016
_cell_length_b               22.090016
_cell_length_c               5.543717
_cell_angle_alpha          90.000000
_cell_angle_beta           90.000000
_cell_angle_gamma          90.000000
_symmetry_cell_setting          Triclinic
_symmetry_space_group_name_H-M 'P 1' 
loop_
_atom_site_label
_atom_site_fract_x
_atom_site_fract_y
_atom_site_fract_z
Ti1	 0.586188	 0.020704	 0.500000 
Ti2	 0.370595	 0.000839	 0.000000 
Sr3	 0.509641	 0.064898	 0.000000 
Ti4	 0.433095	 0.109092	 0.500000 
Ti5	 0.217502	 0.089227	 0.000000 
Sr6	 0.356548	 0.153286	 0.000000 
Ti7	 0.280002	 0.197480	 0.500000 
Sr8	 0.294048	 0.045033	 0.500000 
Ti9	 0.064409	 0.177616	 0.000000 
Sr10	 0.203455	 0.241675	 0.000000 
Ti11	 0.126909	 0.285869	 0.500000 
Sr12	 0.140955	 0.133421	 0.500000 
Sr13	 0.050362	 0.330063	 0.000000 
Ti14	 0.648688	 0.128957	 0.000000 
Sr15	 0.787735	 0.193016	 0.000000 
Ti16	 0.711188	 0.237210	 0.500000 
Sr17	 0.725235	 0.084763	 0.500000 
Ti18	 0.495595	 0.217345	 0.000000 
Sr19	 0.634641	 0.281404	 0.000000 
Ti20	 0.558095	 0.325598	 0.500000 
Sr21	 0.572141	 0.173151	 0.500000 
Ti22	 0.342502	 0.305734	 0.000000 
Sr23	 0.481548	 0.369793	 0.000000 
Ti24	 0.405002	 0.413987	 0.500000 
Sr25	 0.419048	 0.261539	 0.500000 
Ti26	 0.189409	 0.394122	 0.000000 
Sr27	 0.328455	 0.458181	 0.000000 
Ti28	 0.251909	 0.502375	 0.500000 
Sr29	 0.265955	 0.349928	 0.500000 
Ti30	 0.036316	 0.482510	 0.000000 
Sr31	 0.175362	 0.546569	 0.000000 
Ti32	 0.098816	 0.590763	 0.500000 
Sr33	 0.112862	 0.438316	 0.500000 
Ti34	 0.773688	 0.345463	 0.000000 
Sr35	 0.912735	 0.409522	 0.000000 
Ti36	 0.836188	 0.453716	 0.500000 
Sr37	 0.850235	 0.301269	 0.500000 
Ti38	 0.620595	 0.433852	 0.000000 
Sr39	 0.759641	 0.497911	 0.000000 
Ti40	 0.683095	 0.542105	 0.500000 
Sr41	 0.697141	 0.389657	 0.500000 
Ti42	 0.467502	 0.522240	 0.000000 
Sr43	 0.606548	 0.586299	 0.000000 
Ti44	 0.530002	 0.630493	 0.500000 
Sr45	 0.544048	 0.478046	 0.500000 
Ti46	 0.314409	 0.610628	 0.000000 
Sr47	 0.453455	 0.674687	 0.000000 
Ti48	 0.376909	 0.718881	 0.500000 
Sr49	 0.390955	 0.566434	 0.500000 
Ti50	 0.161316	 0.699017	 0.000000 
Sr51	 0.300362	 0.763076	 0.000000 
Ti52	 0.223816	 0.807270	 0.500000 
Sr53	 0.237862	 0.654822	 0.500000 
Ti54	 0.898688	 0.561970	 0.000000 
Ti55	 0.961188	 0.670223	 0.500000 
Sr56	 0.975235	 0.517775	 0.500000 
Ti57	 0.745595	 0.650358	 0.000000 
Sr58	 0.884641	 0.714417	 0.000000 
Ti59	 0.808095	 0.758611	 0.500000 
Sr60	 0.822141	 0.606164	 0.500000 
Ti61	 0.592502	 0.738746	 0.000000 
Sr62	 0.731548	 0.802805	 0.000000 
Ti63	 0.655002	 0.846999	 0.500000 
Sr64	 0.669048	 0.694552	 0.500000 
Ti65	 0.439409	 0.827135	 0.000000 
Sr66	 0.578455	 0.891194	 0.000000 
Ti67	 0.501909	 0.935388	 0.500000 
Sr68	 0.515955	 0.782940	 0.500000 
Ti69	 0.286316	 0.915523	 0.000000 
Sr70	 0.425362	 0.979582	 0.000000 
Sr71	 0.362862	 0.871329	 0.500000 
#                 ---end-of-data-block---
