data_Pt structure along [001] nx 4 ny 5 nz 1
_cell_length_a               22.090016
_cell_length_b               22.090016
_cell_length_c               5.543717
_cell_angle_alpha          90.000000
_cell_angle_beta           90.000000
_cell_angle_gamma          90.000000
_symmetry_cell_setting          Triclinic
_symmetry_space_group_name_H-M 'P 1' 
loop_
_atom_site_label
_atom_site_fract_x
_atom_site_fract_y
_atom_site_fract_z
Ti1	 0.511126	 0.076360	 0.000000 
Sr2	 0.662014	 0.102248	 0.000000 
Ti3	 0.599514	 0.164748	 0.500000 
Sr4	 0.573626	 0.013860	 0.500000 
Ti5	 0.386126	 0.201360	 0.000000 
Sr6	 0.537014	 0.227248	 0.000000 
Ti7	 0.474514	 0.289748	 0.500000 
Sr8	 0.448626	 0.138860	 0.500000 
Ti9	 0.261126	 0.326360	 0.000000 
Sr10	 0.412014	 0.352248	 0.000000 
Ti11	 0.349514	 0.414748	 0.500000 
Sr12	 0.323626	 0.263860	 0.500000 
Ti13	 0.136126	 0.451360	 0.000000 
Sr14	 0.287014	 0.477248	 0.000000 
Ti15	 0.224514	 0.539748	 0.500000 
Sr16	 0.198626	 0.388860	 0.500000 
Ti17	 0.011126	 0.576360	 0.000000 
Sr18	 0.162014	 0.602248	 0.000000 
Ti19	 0.099514	 0.664748	 0.500000 
Sr20	 0.073626	 0.513860	 0.500000 
Ti21	 0.687903	 0.253136	 0.000000 
Sr22	 0.838791	 0.279025	 0.000000 
Ti23	 0.776291	 0.341525	 0.500000 
Sr24	 0.750403	 0.190636	 0.500000 
Ti25	 0.562903	 0.378136	 0.000000 
Sr26	 0.713791	 0.404025	 0.000000 
Ti27	 0.651291	 0.466525	 0.500000 
Sr28	 0.625403	 0.315636	 0.500000 
Ti29	 0.437903	 0.503136	 0.000000 
Sr30	 0.588791	 0.529025	 0.000000 
Ti31	 0.526291	 0.591525	 0.500000 
Sr32	 0.500403	 0.440636	 0.500000 
Ti33	 0.312903	 0.628136	 0.000000 
Sr34	 0.463791	 0.654025	 0.000000 
Ti35	 0.401291	 0.716525	 0.500000 
Sr36	 0.375403	 0.565636	 0.500000 
Ti37	 0.187903	 0.753136	 0.000000 
Sr38	 0.338791	 0.779025	 0.000000 
Ti39	 0.276291	 0.841525	 0.500000 
Sr40	 0.250403	 0.690636	 0.500000 
Ti41	 0.864679	 0.429913	 0.000000 
Ti42	 0.953068	 0.518301	 0.500000 
Sr43	 0.927179	 0.367413	 0.500000 
Ti44	 0.739679	 0.554913	 0.000000 
Sr45	 0.890568	 0.580801	 0.000000 
Ti46	 0.828068	 0.643301	 0.500000 
Sr47	 0.802179	 0.492413	 0.500000 
Ti48	 0.614679	 0.679913	 0.000000 
Sr49	 0.765568	 0.705801	 0.000000 
Ti50	 0.703068	 0.768301	 0.500000 
Sr51	 0.677179	 0.617413	 0.500000 
Ti52	 0.489679	 0.804913	 0.000000 
Sr53	 0.640568	 0.830801	 0.000000 
Ti54	 0.578068	 0.893301	 0.500000 
Sr55	 0.552179	 0.742413	 0.500000 
Ti56	 0.364679	 0.929913	 0.000000 
Sr57	 0.515568	 0.955801	 0.000000 
Sr58	 0.427179	 0.867413	 0.500000 
Ti59	 0.916456	 0.731690	 0.000000 
Sr60	 0.360238	 0.050471	 0.000000 
Ti61	 0.297738	 0.112971	 0.500000 
Sr62	 0.978956	 0.669190	 0.500000 
Ti63	 0.791456	 0.856690	 0.000000 
Sr64	 0.235238	 0.175471	 0.000000 
Ti65	 0.172738	 0.237971	 0.500000 
Sr66	 0.853956	 0.794190	 0.500000 
Ti67	 0.666456	 0.981690	 0.000000 
Sr68	 0.110238	 0.300471	 0.000000 
Ti69	 0.047738	 0.362971	 0.500000 
Sr70	 0.728956	 0.919190	 0.500000 
#                 ---end-of-data-block---
