data_Pt structure along [001] nx 4 ny 5 nz 1
_cell_length_a               22.090016
_cell_length_b               22.090016
_cell_length_c               5.543717
_cell_angle_alpha          90.000000
_cell_angle_beta           90.000000
_cell_angle_gamma          90.000000
_symmetry_cell_setting          Triclinic
_symmetry_space_group_name_H-M 'P 1' 
loop_
_atom_site_label
_atom_site_fract_x
_atom_site_fract_y
_atom_site_fract_z
Ti1	 0.588990	 0.051784	 0.000000 
Sr2	 0.728037	 0.115843	 0.000000 
Ti3	 0.651490	 0.160037	 0.500000 
Sr4	 0.665537	 0.007590	 0.500000 
Ti5	 0.435897	 0.140172	 0.000000 
Sr6	 0.574944	 0.204231	 0.000000 
Ti7	 0.498397	 0.248425	 0.500000 
Sr8	 0.512444	 0.095978	 0.500000 
Ti9	 0.282804	 0.228561	 0.000000 
Sr10	 0.421851	 0.292620	 0.000000 
Ti11	 0.345304	 0.336814	 0.500000 
Sr12	 0.359351	 0.184366	 0.500000 
Ti13	 0.129711	 0.316949	 0.000000 
Sr14	 0.268758	 0.381008	 0.000000 
Ti15	 0.192211	 0.425202	 0.500000 
Sr16	 0.206258	 0.272755	 0.500000 
Sr17	 0.115664	 0.469396	 0.000000 
Ti18	 0.039118	 0.513591	 0.500000 
Sr19	 0.053164	 0.361143	 0.500000 
Ti20	 0.713990	 0.268290	 0.000000 
Sr21	 0.853037	 0.332349	 0.000000 
Ti22	 0.776490	 0.376543	 0.500000 
Sr23	 0.790537	 0.224096	 0.500000 
Ti24	 0.560897	 0.356679	 0.000000 
Sr25	 0.699944	 0.420738	 0.000000 
Ti26	 0.623397	 0.464932	 0.500000 
Sr27	 0.637444	 0.312484	 0.500000 
Ti28	 0.407804	 0.445067	 0.000000 
Sr29	 0.546851	 0.509126	 0.000000 
Ti30	 0.470304	 0.553320	 0.500000 
Sr31	 0.484351	 0.400873	 0.500000 
Ti32	 0.254711	 0.533455	 0.000000 
Sr33	 0.393758	 0.597514	 0.000000 
Ti34	 0.317211	 0.641709	 0.500000 
Sr35	 0.331258	 0.489261	 0.500000 
Ti36	 0.101618	 0.621844	 0.000000 
Sr37	 0.240664	 0.685903	 0.000000 
Ti38	 0.164118	 0.730097	 0.500000 
Sr39	 0.178164	 0.577650	 0.500000 
Ti40	 0.838990	 0.484797	 0.000000 
Sr41	 0.978037	 0.548856	 0.000000 
Ti42	 0.901490	 0.593050	 0.500000 
Sr43	 0.915537	 0.440602	 0.500000 
Ti44	 0.685897	 0.573185	 0.000000 
Sr45	 0.824944	 0.637244	 0.000000 
Ti46	 0.748397	 0.681438	 0.500000 
Sr47	 0.762444	 0.528991	 0.500000 
Ti48	 0.532804	 0.661573	 0.000000 
Sr49	 0.671851	 0.725632	 0.000000 
Ti50	 0.595304	 0.769827	 0.500000 
Sr51	 0.609351	 0.617379	 0.500000 
Ti52	 0.379711	 0.749962	 0.000000 
Sr53	 0.518758	 0.814021	 0.000000 
Ti54	 0.442211	 0.858215	 0.500000 
Sr55	 0.456258	 0.705768	 0.500000 
Ti56	 0.226618	 0.838350	 0.000000 
Sr57	 0.365664	 0.902409	 0.000000 
Ti58	 0.289118	 0.946603	 0.500000 
Sr59	 0.303164	 0.794156	 0.500000 
Ti60	 0.963990	 0.701303	 0.000000 
Ti61	 0.810897	 0.789691	 0.000000 
Ti62	 0.373397	 0.031919	 0.500000 
Sr63	 0.887444	 0.745497	 0.500000 
Ti64	 0.657804	 0.878080	 0.000000 
Sr65	 0.296851	 0.076113	 0.000000 
Ti66	 0.220304	 0.120307	 0.500000 
Sr67	 0.734351	 0.833886	 0.500000 
Ti68	 0.504711	 0.966468	 0.000000 
Sr69	 0.143758	 0.164502	 0.000000 
Ti70	 0.067211	 0.208696	 0.500000 
Sr71	 0.581258	 0.922274	 0.500000 
#                 ---end-of-data-block---
