data_Pt structure along [001] nx 4 ny 5 nz 1
_cell_length_a               22.090016
_cell_length_b               22.090016
_cell_length_c               5.543717
_cell_angle_alpha          90.000000
_cell_angle_beta           90.000000
_cell_angle_gamma          90.000000
_symmetry_cell_setting          Triclinic
_symmetry_space_group_name_H-M 'P 1' 
loop_
_atom_site_label
_atom_site_fract_x
_atom_site_fract_y
_atom_site_fract_z
Ti1	 0.706776	 0.021050	 0.000000 
Sr2	 0.824505	 0.118914	 0.000000 
Ti3	 0.739128	 0.141790	 0.500000 
Ti4	 0.536022	 0.066803	 0.000000 
Sr5	 0.653751	 0.164667	 0.000000 
Ti6	 0.568375	 0.187544	 0.500000 
Sr7	 0.621399	 0.043926	 0.500000 
Ti8	 0.365269	 0.112556	 0.000000 
Sr9	 0.482998	 0.210420	 0.000000 
Ti10	 0.397622	 0.233297	 0.500000 
Sr11	 0.450646	 0.089679	 0.500000 
Ti12	 0.194516	 0.158309	 0.000000 
Sr13	 0.312245	 0.256173	 0.000000 
Ti14	 0.226869	 0.279050	 0.500000 
Sr15	 0.279893	 0.135433	 0.500000 
Ti16	 0.023763	 0.204062	 0.000000 
Sr17	 0.141492	 0.301927	 0.000000 
Ti18	 0.056115	 0.324803	 0.500000 
Sr19	 0.109140	 0.181186	 0.500000 
Ti20	 0.771480	 0.262531	 0.000000 
Sr21	 0.889209	 0.360395	 0.000000 
Ti22	 0.803833	 0.383272	 0.500000 
Sr23	 0.856857	 0.239655	 0.500000 
Ti24	 0.600727	 0.308284	 0.000000 
Sr25	 0.718456	 0.406148	 0.000000 
Ti26	 0.633080	 0.429025	 0.500000 
Sr27	 0.686104	 0.285408	 0.500000 
Ti28	 0.429974	 0.354038	 0.000000 
Sr29	 0.547703	 0.451902	 0.000000 
Ti30	 0.462326	 0.474778	 0.500000 
Sr31	 0.515351	 0.331161	 0.500000 
Ti32	 0.259221	 0.399791	 0.000000 
Sr33	 0.376950	 0.497655	 0.000000 
Ti34	 0.291573	 0.520531	 0.500000 
Sr35	 0.344597	 0.376914	 0.500000 
Ti36	 0.088468	 0.445544	 0.000000 
Sr37	 0.206197	 0.543408	 0.000000 
Ti38	 0.120820	 0.566285	 0.500000 
Sr39	 0.173844	 0.422667	 0.500000 
Ti40	 0.836185	 0.504013	 0.000000 
Sr41	 0.953914	 0.601877	 0.000000 
Ti42	 0.868538	 0.624753	 0.500000 
Sr43	 0.921562	 0.481136	 0.500000 
Ti44	 0.665432	 0.549766	 0.000000 
Sr45	 0.783161	 0.647630	 0.000000 
Ti46	 0.697784	 0.670507	 0.500000 
Sr47	 0.750809	 0.526889	 0.500000 
Ti48	 0.494679	 0.595519	 0.000000 
Sr49	 0.612408	 0.693383	 0.000000 
Ti50	 0.527031	 0.716260	 0.500000 
Sr51	 0.580055	 0.572642	 0.500000 
Ti52	 0.323926	 0.641272	 0.000000 
Sr53	 0.441655	 0.739136	 0.000000 
Ti54	 0.356278	 0.762013	 0.500000 
Sr55	 0.409302	 0.618396	 0.500000 
Ti56	 0.153172	 0.687025	 0.000000 
Sr57	 0.270901	 0.784889	 0.000000 
Ti58	 0.185525	 0.807766	 0.500000 
Sr59	 0.238549	 0.664149	 0.500000 
Ti60	 0.900890	 0.745494	 0.000000 
Ti61	 0.933242	 0.866235	 0.500000 
Sr62	 0.986267	 0.722617	 0.500000 
Ti63	 0.730137	 0.791247	 0.000000 
Sr64	 0.847866	 0.889111	 0.000000 
Ti65	 0.762489	 0.911988	 0.500000 
Sr66	 0.815513	 0.768371	 0.500000 
Ti67	 0.559384	 0.837000	 0.000000 
Sr68	 0.677113	 0.934865	 0.000000 
Ti69	 0.591736	 0.957741	 0.500000 
Sr70	 0.644760	 0.814124	 0.500000 
Ti71	 0.388630	 0.882754	 0.000000 
Sr72	 0.506359	 0.980618	 0.000000 
Sr73	 0.474007	 0.859877	 0.500000 
Ti74	 0.217877	 0.928507	 0.000000 
Sr75	 0.303254	 0.905630	 0.500000 
#                 ---end-of-data-block---
