data_A fcc partile with size of 16 A with 100/111/110 ratio of 1/0.841197/2
_cell_length_a               23.520000
_cell_length_b               23.520000
_cell_length_c               23.520000
_cell_angle_alpha          90.000000
_cell_angle_beta           90.000000
_cell_angle_gamma          90.000000
_symmetry_cell_setting          Triclinic
_symmetry_space_group_name_H-M 'P 1' 
loop_
_atom_site_label
_atom_site_fract_x
_atom_site_fract_y
_atom_site_fract_z
Pt1	 0.413366	 0.669027	 0.323223 
Pt2	 0.509111	 0.633677	 0.264298 
Pt3	 0.478609	 0.747513	 0.264298 
Pt4	 0.574354	 0.712163	 0.323223 
Pt5	 0.478609	 0.747513	 0.382149 
Pt6	 0.282880	 0.512055	 0.441074 
Pt7	 0.474370	 0.441356	 0.323223 
Pt8	 0.443868	 0.555191	 0.323223 
Pt9	 0.378625	 0.476705	 0.382149 
Pt10	 0.348123	 0.590541	 0.382149 
Pt11	 0.443868	 0.555191	 0.441074 
Pt12	 0.413366	 0.669027	 0.441074 
Pt13	 0.348123	 0.590541	 0.500000 
Pt14	 0.413366	 0.669027	 0.558926 
Pt15	 0.570115	 0.406006	 0.264298 
Pt16	 0.539613	 0.519842	 0.264298 
Pt17	 0.635358	 0.484492	 0.323223 
Pt18	 0.604856	 0.598328	 0.323223 
Pt19	 0.539613	 0.519842	 0.382149 
Pt20	 0.509111	 0.633677	 0.382149 
Pt21	 0.604856	 0.598328	 0.441074 
Pt22	 0.574354	 0.712163	 0.441074 
Pt23	 0.509111	 0.633677	 0.500000 
Pt24	 0.478609	 0.747513	 0.500000 
Pt25	 0.574354	 0.712163	 0.558926 
Pt26	 0.478609	 0.747513	 0.617851 
Pt27	 0.700601	 0.562978	 0.382149 
Pt28	 0.670098	 0.676814	 0.382149 
Pt29	 0.765843	 0.641464	 0.441074 
Pt30	 0.670098	 0.676814	 0.500000 
Pt31	 0.313383	 0.398219	 0.441074 
Pt32	 0.217638	 0.433569	 0.500000 
Pt33	 0.313383	 0.398219	 0.558926 
Pt34	 0.282880	 0.512055	 0.558926 
Pt35	 0.504872	 0.327520	 0.323223 
Pt36	 0.409127	 0.362870	 0.382149 
Pt37	 0.504872	 0.327520	 0.441074 
Pt38	 0.474370	 0.441356	 0.441074 
Pt39	 0.409127	 0.362870	 0.500000 
Pt40	 0.378625	 0.476705	 0.500000 
Pt41	 0.474370	 0.441356	 0.558926 
Pt42	 0.443868	 0.555191	 0.558926 
Pt43	 0.378625	 0.476705	 0.617851 
Pt44	 0.348123	 0.590541	 0.617851 
Pt45	 0.443868	 0.555191	 0.676777 
Pt46	 0.413366	 0.669027	 0.676777 
Pt47	 0.600617	 0.292171	 0.264298 
Pt48	 0.665860	 0.370657	 0.323223 
Pt49	 0.600617	 0.292171	 0.382149 
Pt50	 0.570115	 0.406006	 0.382149 
Pt51	 0.665860	 0.370657	 0.441074 
Pt52	 0.635358	 0.484492	 0.441074 
Pt53	 0.570115	 0.406006	 0.500000 
Pt54	 0.539613	 0.519842	 0.500000 
Pt55	 0.635358	 0.484492	 0.558926 
Pt56	 0.604856	 0.598328	 0.558926 
Pt57	 0.539613	 0.519842	 0.617851 
Pt58	 0.509111	 0.633677	 0.617851 
Pt59	 0.604856	 0.598328	 0.676777 
Pt60	 0.574354	 0.712163	 0.676777 
Pt61	 0.509111	 0.633677	 0.735702 
Pt62	 0.478609	 0.747513	 0.735702 
Pt63	 0.731103	 0.449143	 0.382149 
Pt64	 0.796345	 0.527629	 0.441074 
Pt65	 0.731103	 0.449143	 0.500000 
Pt66	 0.700601	 0.562978	 0.500000 
Pt67	 0.796345	 0.527629	 0.558926 
Pt68	 0.765843	 0.641464	 0.558926 
Pt69	 0.700601	 0.562978	 0.617851 
Pt70	 0.670098	 0.676814	 0.617851 
Pt71	 0.861588	 0.606115	 0.500000 
Pt72	 0.504872	 0.327520	 0.558926 
Pt73	 0.409127	 0.362870	 0.617851 
Pt74	 0.504872	 0.327520	 0.676777 
Pt75	 0.474370	 0.441356	 0.676777 
Pt76	 0.600617	 0.292171	 0.500000 
Pt77	 0.665860	 0.370657	 0.558926 
Pt78	 0.600617	 0.292171	 0.617851 
Pt79	 0.570115	 0.406006	 0.617851 
Pt80	 0.665860	 0.370657	 0.676777 
Pt81	 0.635358	 0.484492	 0.676777 
Pt82	 0.570115	 0.406006	 0.735702 
Pt83	 0.539613	 0.519842	 0.735702 
Pt84	 0.731103	 0.449143	 0.617851 
Pt85	 0.600617	 0.292171	 0.735702 
#                 ---end-of-data-block---
