data_C:\Users\admin\Documents\atomsegmentation_bupt_fullsuite_3\misc\08485.cif
_cell_length_a               23.739600
_cell_length_b               23.739600
_cell_length_c               5.449400
_cell_angle_alpha          90.000000
_cell_angle_beta           90.000000
_cell_angle_gamma          90.000000
_symmetry_cell_setting          Triclinic
_symmetry_space_group_name_H-M 'P 1' 
loop_
_atom_site_label
_atom_site_fract_x
_atom_site_fract_y
_atom_site_fract_z
Sc1	 0.353668	 0.024383	 0.000000 
Sc2	 0.249220	 0.084686	 0.500000 
Sc3	 0.437002	 0.168721	 0.000000 
Sc4	 0.332553	 0.229024	 0.500000 
Dy5	 0.487103	 0.043569	 0.017200 
Dy6	 0.491348	 0.233569	 0.517200 
Dy7	 0.386900	 0.293872	 0.982800 
Dy8	 0.382655	 0.103873	 0.482800 
Sc9	 0.144772	 0.144990	 0.000000 
Sc10	 0.040323	 0.205293	 0.500000 
Sc11	 0.228105	 0.289327	 0.000000 
Sc12	 0.123657	 0.349630	 0.500000 
Dy13	 0.278207	 0.164176	 0.017200 
Dy14	 0.282452	 0.354175	 0.517200 
Dy15	 0.178003	 0.414478	 0.982800 
Dy16	 0.173758	 0.224479	 0.482800 
Sc17	 0.645898	 0.048114	 0.000000 
Sc18	 0.541450	 0.108417	 0.500000 
Dy19	 0.069310	 0.284782	 0.017200 
Dy20	 0.073555	 0.474782	 0.517200 
Dy21	 0.595797	 0.173265	 0.982800 
Sc22	 0.520335	 0.313058	 0.000000 
Sc23	 0.415887	 0.373362	 0.500000 
Sc24	 0.603668	 0.457396	 0.000000 
Sc25	 0.499220	 0.517699	 0.500000 
Dy26	 0.653770	 0.332245	 0.017200 
Dy27	 0.658015	 0.522244	 0.517200 
Dy28	 0.553567	 0.582547	 0.982800 
Dy29	 0.549322	 0.392548	 0.482800 
Sc30	 0.311438	 0.433665	 0.000000 
Sc31	 0.206990	 0.493968	 0.500000 
Sc32	 0.394772	 0.578002	 0.000000 
Sc33	 0.290323	 0.638306	 0.500000 
Dy34	 0.444873	 0.452851	 0.017200 
Dy35	 0.449118	 0.642850	 0.517200 
Dy36	 0.344670	 0.703154	 0.982800 
Dy37	 0.340425	 0.513154	 0.482800 
Sc38	 0.729231	 0.192452	 0.000000 
Sc39	 0.624783	 0.252755	 0.500000 
Sc40	 0.812565	 0.336789	 0.000000 
Sc41	 0.708117	 0.397093	 0.500000 
Dy42	 0.235977	 0.573458	 0.017200 
Dy43	 0.240222	 0.763457	 0.517200 
Dy44	 0.762463	 0.461941	 0.982800 
Dy45	 0.758218	 0.271941	 0.482800 
Sc46	 0.687002	 0.601733	 0.000000 
Sc47	 0.582553	 0.662037	 0.500000 
Sc48	 0.770335	 0.746071	 0.000000 
Sc49	 0.665887	 0.806374	 0.500000 
Dy50	 0.820437	 0.620920	 0.017200 
Dy51	 0.824682	 0.810919	 0.517200 
Dy52	 0.720233	 0.871222	 0.982800 
Dy53	 0.715988	 0.681223	 0.482800 
Sc54	 0.478105	 0.722340	 0.000000 
Sc55	 0.373657	 0.782643	 0.500000 
Sc56	 0.561438	 0.866677	 0.000000 
Sc57	 0.456990	 0.926981	 0.500000 
Dy58	 0.611540	 0.741526	 0.017200 
Dy59	 0.615785	 0.931525	 0.517200 
Dy60	 0.511337	 0.991829	 0.982800 
Dy61	 0.507092	 0.801830	 0.482800 
Sc62	 0.895898	 0.481127	 0.000000 
Sc63	 0.791450	 0.541430	 0.500000 
Sc64	 0.979231	 0.625464	 0.000000 
Sc65	 0.874783	 0.685768	 0.500000 
Dy66	 0.402643	 0.862133	 0.017200 
Dy67	 0.929130	 0.750616	 0.982800 
Dy68	 0.924885	 0.560617	 0.482800 
#                 ---end-of-data-block---
