data_C:\Users\admin\Documents\atomsegmentation_bupt_fullsuite_3\misc\08484.cif
_cell_length_a               23.739600
_cell_length_b               23.739600
_cell_length_c               5.449400
_cell_angle_alpha          90.000000
_cell_angle_beta           90.000000
_cell_angle_gamma          90.000000
_symmetry_cell_setting          Triclinic
_symmetry_space_group_name_H-M 'P 1' 
loop_
_atom_site_label
_atom_site_fract_x
_atom_site_fract_y
_atom_site_fract_z
Sc1	 0.574665	 0.264436	 0.000000 
Sc2	 0.470216	 0.324739	 0.500000 
Sc3	 0.657998	 0.408774	 0.000000 
Sc4	 0.553550	 0.469077	 0.500000 
Dy5	 0.708100	 0.283622	 0.017200 
Dy6	 0.712345	 0.473622	 0.517200 
Dy7	 0.607896	 0.533925	 0.982800 
Dy8	 0.603651	 0.343926	 0.482800 
Sc9	 0.365768	 0.385042	 0.000000 
Sc10	 0.261320	 0.445346	 0.500000 
Sc11	 0.449101	 0.529380	 0.000000 
Sc12	 0.344653	 0.589683	 0.500000 
Dy13	 0.499203	 0.404229	 0.017200 
Dy14	 0.503448	 0.594228	 0.517200 
Dy15	 0.399000	 0.654531	 0.982800 
Dy16	 0.394755	 0.464532	 0.482800 
Sc17	 0.156871	 0.505649	 0.000000 
Sc18	 0.679113	 0.204133	 0.500000 
Sc19	 0.240205	 0.649987	 0.000000 
Sc20	 0.762446	 0.348470	 0.500000 
Dy21	 0.290306	 0.524835	 0.017200 
Dy22	 0.294551	 0.714835	 0.517200 
Dy23	 0.816793	 0.413318	 0.982800 
Dy24	 0.185858	 0.585139	 0.482800 
Sc25	 0.741331	 0.553111	 0.000000 
Sc26	 0.636883	 0.613414	 0.500000 
Sc27	 0.824665	 0.697449	 0.000000 
Sc28	 0.720216	 0.757752	 0.500000 
Dy29	 0.874766	 0.572297	 0.017200 
Dy30	 0.879011	 0.762297	 0.517200 
Dy31	 0.774563	 0.822600	 0.982800 
Dy32	 0.770318	 0.632601	 0.482800 
Sc33	 0.532435	 0.673718	 0.000000 
Sc34	 0.427986	 0.734021	 0.500000 
Sc35	 0.615768	 0.818055	 0.000000 
Sc36	 0.511320	 0.878358	 0.500000 
Dy37	 0.665870	 0.692904	 0.017200 
Dy38	 0.670115	 0.882903	 0.517200 
Dy39	 0.565666	 0.943206	 0.982800 
Dy40	 0.561421	 0.753207	 0.482800 
Sc41	 0.323538	 0.794324	 0.000000 
Sc42	 0.845780	 0.492808	 0.500000 
Sc43	 0.406871	 0.938662	 0.000000 
Sc44	 0.929113	 0.637145	 0.500000 
Dy45	 0.456973	 0.813510	 0.017200 
Dy46	 0.983460	 0.701993	 0.982800 
Dy47	 0.352525	 0.873814	 0.482800 
Sc48	 0.907998	 0.841786	 0.000000 
Sc49	 0.803550	 0.902090	 0.500000 
Sc50	 0.491331	 0.120098	 0.000000 
Sc51	 0.386883	 0.180402	 0.500000 
Dy52	 0.545678	 0.184946	 0.517200 
Dy53	 0.441230	 0.245250	 0.982800 
Dy54	 0.436985	 0.055250	 0.482800 
Sc55	 0.699101	 0.962393	 0.000000 
Sc56	 0.282435	 0.240705	 0.000000 
Sc57	 0.177986	 0.301008	 0.500000 
Dy58	 0.332536	 0.115554	 0.017200 
Dy59	 0.336781	 0.305553	 0.517200 
Dy60	 0.232333	 0.365856	 0.982800 
Dy61	 0.228088	 0.175857	 0.482800 
Sc62	 0.073538	 0.361311	 0.000000 
Sc63	 0.595780	 0.059795	 0.500000 
Dy64	 0.123640	 0.236160	 0.017200 
Dy65	 0.127885	 0.426159	 0.517200 
Dy66	 0.650126	 0.124643	 0.982800 
Dy67	 0.019191	 0.296463	 0.482800 
#                 ---end-of-data-block---
