data_Single Layer of MoS2nx 6 ny 4 nz 1
_cell_length_a               21.615994
_cell_length_b               21.615994
_cell_length_c               3.080000
_cell_angle_alpha          90.000000
_cell_angle_beta           90.000000
_cell_angle_gamma          90.000000
_symmetry_cell_setting          Triclinic
_symmetry_space_group_name_H-M 'P 1' 
loop_
_atom_site_label
_atom_site_fract_x
_atom_site_fract_y
_atom_site_fract_z
S1	 0.264541	 0.037245	 1.000000 
S2	 0.264541	 0.037245	 0.000000 
Mo3	 0.221405	 0.198232	 0.500000 
Mo4	 0.323467	 0.096170	 0.500000 
S5	 0.301898	 0.176664	 1.000000 
S6	 0.301898	 0.176664	 0.000000 
S7	 0.199836	 0.278726	 1.000000 
S8	 0.199836	 0.278726	 0.000000 
Mo9	 0.156700	 0.439714	 0.500000 
Mo10	 0.258762	 0.337652	 0.500000 
S11	 0.237194	 0.418145	 1.000000 
S12	 0.237194	 0.418145	 0.000000 
S13	 0.135132	 0.520208	 1.000000 
S14	 0.135132	 0.520208	 0.000000 
Mo15	 0.091995	 0.681195	 0.500000 
Mo16	 0.194057	 0.579133	 0.500000 
S17	 0.172489	 0.659627	 1.000000 
S18	 0.172489	 0.659627	 0.000000 
S19	 0.070427	 0.761689	 1.000000 
S20	 0.070427	 0.761689	 0.000000 
Mo21	 0.129352	 0.820615	 0.500000 
S22	 0.107784	 0.901108	 1.000000 
S23	 0.107784	 0.901108	 0.000000 
S24	 0.403961	 0.074602	 1.000000 
S25	 0.403961	 0.074602	 0.000000 
Mo26	 0.360824	 0.235590	 0.500000 
Mo27	 0.462886	 0.133528	 0.500000 
S28	 0.441318	 0.214021	 1.000000 
S29	 0.441318	 0.214021	 0.000000 
S30	 0.339256	 0.316083	 1.000000 
S31	 0.339256	 0.316083	 0.000000 
Mo32	 0.296119	 0.477071	 0.500000 
Mo33	 0.398181	 0.375009	 0.500000 
S34	 0.376613	 0.455503	 1.000000 
S35	 0.376613	 0.455503	 0.000000 
S36	 0.274551	 0.557565	 1.000000 
S37	 0.274551	 0.557565	 0.000000 
Mo38	 0.231414	 0.718552	 0.500000 
Mo39	 0.333477	 0.616490	 0.500000 
S40	 0.311908	 0.696984	 1.000000 
S41	 0.311908	 0.696984	 0.000000 
S42	 0.209846	 0.799046	 1.000000 
S43	 0.209846	 0.799046	 0.000000 
Mo44	 0.268772	 0.857972	 0.500000 
S45	 0.247204	 0.938466	 1.000000 
S46	 0.247204	 0.938466	 0.000000 
S47	 0.543380	 0.111959	 1.000000 
S48	 0.543380	 0.111959	 0.000000 
Mo49	 0.500243	 0.272947	 0.500000 
Mo50	 0.602305	 0.170885	 0.500000 
S51	 0.580737	 0.251379	 1.000000 
S52	 0.580737	 0.251379	 0.000000 
S53	 0.478675	 0.353441	 1.000000 
S54	 0.478675	 0.353441	 0.000000 
Mo55	 0.435539	 0.514428	 0.500000 
Mo56	 0.537601	 0.412366	 0.500000 
S57	 0.516032	 0.492860	 1.000000 
S58	 0.516032	 0.492860	 0.000000 
S59	 0.413970	 0.594922	 1.000000 
S60	 0.413970	 0.594922	 0.000000 
Mo61	 0.370834	 0.755910	 0.500000 
Mo62	 0.472896	 0.653848	 0.500000 
S63	 0.451328	 0.734342	 1.000000 
S64	 0.451328	 0.734342	 0.000000 
S65	 0.349266	 0.836404	 1.000000 
S66	 0.349266	 0.836404	 0.000000 
Mo67	 0.564948	 0.031465	 0.500000 
Mo68	 0.408191	 0.895329	 0.500000 
S69	 0.386623	 0.975823	 1.000000 
S70	 0.386623	 0.975823	 0.000000 
S71	 0.682799	 0.149317	 1.000000 
S72	 0.682799	 0.149317	 0.000000 
Mo73	 0.639663	 0.310304	 0.500000 
Mo74	 0.741725	 0.208242	 0.500000 
S75	 0.720157	 0.288736	 1.000000 
S76	 0.720157	 0.288736	 0.000000 
S77	 0.618095	 0.390798	 1.000000 
S78	 0.618095	 0.390798	 0.000000 
Mo79	 0.574958	 0.551786	 0.500000 
Mo80	 0.677020	 0.449724	 0.500000 
S81	 0.655452	 0.530217	 1.000000 
S82	 0.655452	 0.530217	 0.000000 
S83	 0.553390	 0.632279	 1.000000 
S84	 0.553390	 0.632279	 0.000000 
Mo85	 0.510253	 0.793267	 0.500000 
Mo86	 0.612315	 0.691205	 0.500000 
S87	 0.590747	 0.771699	 1.000000 
S88	 0.590747	 0.771699	 0.000000 
S89	 0.488685	 0.873761	 1.000000 
S90	 0.488685	 0.873761	 0.000000 
Mo91	 0.704368	 0.068823	 0.500000 
Mo92	 0.547611	 0.932687	 0.500000 
S93	 0.822219	 0.186674	 1.000000 
S94	 0.822219	 0.186674	 0.000000 
Mo95	 0.779082	 0.347662	 0.500000 
Mo96	 0.881144	 0.245599	 0.500000 
S97	 0.859576	 0.326093	 1.000000 
S98	 0.859576	 0.326093	 0.000000 
S99	 0.757514	 0.428155	 1.000000 
S100	 0.757514	 0.428155	 0.000000 
Mo101	 0.714377	 0.589143	 0.500000 
Mo102	 0.816439	 0.487081	 0.500000 
S103	 0.794871	 0.567575	 1.000000 
S104	 0.794871	 0.567575	 0.000000 
S105	 0.692809	 0.669637	 1.000000 
S106	 0.692809	 0.669637	 0.000000 
Mo107	 0.649673	 0.830624	 0.500000 
Mo108	 0.751735	 0.728562	 0.500000 
S109	 0.730166	 0.809056	 1.000000 
S110	 0.730166	 0.809056	 0.000000 
S111	 0.628104	 0.911118	 1.000000 
S112	 0.628104	 0.911118	 0.000000 
Mo113	 0.843787	 0.106180	 0.500000 
Mo114	 0.687030	 0.970044	 0.500000 
S115	 0.961638	 0.224031	 1.000000 
S116	 0.961638	 0.224031	 0.000000 
Mo117	 0.918502	 0.385019	 0.500000 
Mo118	 0.184047	 0.058813	 0.500000 
S119	 0.162479	 0.139307	 1.000000 
S120	 0.162479	 0.139307	 0.000000 
S121	 0.896933	 0.465513	 1.000000 
S122	 0.896933	 0.465513	 0.000000 
Mo123	 0.853797	 0.626500	 0.500000 
Mo124	 0.119343	 0.300294	 0.500000 
S125	 0.097774	 0.380788	 1.000000 
S126	 0.097774	 0.380788	 0.000000 
S127	 0.832229	 0.706994	 1.000000 
S128	 0.832229	 0.706994	 0.000000 
Mo129	 0.789092	 0.867982	 0.500000 
Mo130	 0.054638	 0.541776	 0.500000 
S131	 0.033070	 0.622270	 1.000000 
S132	 0.033070	 0.622270	 0.000000 
S133	 0.767524	 0.948476	 1.000000 
S134	 0.767524	 0.948476	 0.000000 
Mo135	 0.983206	 0.143537	 0.500000 
#                 ---end-of-data-block---
