data_Single Layer of MoS2nx 6 ny 4 nz 1
_cell_length_a               21.615994
_cell_length_b               21.615994
_cell_length_c               3.080000
_cell_angle_alpha          90.000000
_cell_angle_beta           90.000000
_cell_angle_gamma          90.000000
_symmetry_cell_setting          Triclinic
_symmetry_space_group_name_H-M 'P 1' 
loop_
_atom_site_label
_atom_site_fract_x
_atom_site_fract_y
_atom_site_fract_z
Mo1	 0.459702	 0.031400	 0.500000 
S2	 0.540196	 0.052969	 1.000000 
S3	 0.540196	 0.052969	 0.000000 
S4	 0.400776	 0.090326	 1.000000 
S5	 0.400776	 0.090326	 0.000000 
Mo6	 0.282925	 0.208177	 0.500000 
Mo7	 0.422345	 0.170820	 0.500000 
S8	 0.363419	 0.229745	 1.000000 
S9	 0.363419	 0.229745	 0.000000 
S10	 0.224000	 0.267103	 1.000000 
S11	 0.224000	 0.267103	 0.000000 
Mo12	 0.106149	 0.384954	 0.500000 
Mo13	 0.245568	 0.347596	 0.500000 
S14	 0.186642	 0.406522	 1.000000 
S15	 0.186642	 0.406522	 0.000000 
S16	 0.047223	 0.443879	 1.000000 
S17	 0.047223	 0.443879	 0.000000 
Mo18	 0.068791	 0.524373	 0.500000 
S19	 0.009866	 0.583299	 1.000000 
S20	 0.009866	 0.583299	 0.000000 
S21	 0.679615	 0.015611	 1.000000 
S22	 0.679615	 0.015611	 0.000000 
Mo23	 0.561764	 0.133462	 0.500000 
Mo24	 0.701183	 0.096105	 0.500000 
S25	 0.642258	 0.155031	 1.000000 
S26	 0.642258	 0.155031	 0.000000 
S27	 0.502838	 0.192388	 1.000000 
S28	 0.502838	 0.192388	 0.000000 
Mo29	 0.384987	 0.310239	 0.500000 
Mo30	 0.524407	 0.272882	 0.500000 
S31	 0.465481	 0.331807	 1.000000 
S32	 0.465481	 0.331807	 0.000000 
S33	 0.326062	 0.369165	 1.000000 
S34	 0.326062	 0.369165	 0.000000 
Mo35	 0.208211	 0.487016	 0.500000 
Mo36	 0.347630	 0.449658	 0.500000 
S37	 0.288704	 0.508584	 1.000000 
S38	 0.288704	 0.508584	 0.000000 
S39	 0.149285	 0.545941	 1.000000 
S40	 0.149285	 0.545941	 0.000000 
Mo41	 0.031434	 0.663792	 0.500000 
Mo42	 0.170853	 0.626435	 0.500000 
S43	 0.111928	 0.685361	 1.000000 
S44	 0.111928	 0.685361	 0.000000 
S45	 0.781677	 0.117673	 1.000000 
S46	 0.781677	 0.117673	 0.000000 
Mo47	 0.663826	 0.235524	 0.500000 
Mo48	 0.803245	 0.198167	 0.500000 
S49	 0.744320	 0.257093	 1.000000 
S50	 0.744320	 0.257093	 0.000000 
S51	 0.604900	 0.294450	 1.000000 
S52	 0.604900	 0.294450	 0.000000 
Mo53	 0.487049	 0.412301	 0.500000 
Mo54	 0.626469	 0.374944	 0.500000 
S55	 0.567543	 0.433869	 1.000000 
S56	 0.567543	 0.433869	 0.000000 
S57	 0.428124	 0.471227	 1.000000 
S58	 0.428124	 0.471227	 0.000000 
Mo59	 0.310273	 0.589078	 0.500000 
Mo60	 0.449692	 0.551721	 0.500000 
S61	 0.390766	 0.610646	 1.000000 
S62	 0.390766	 0.610646	 0.000000 
S63	 0.251347	 0.648003	 1.000000 
S64	 0.251347	 0.648003	 0.000000 
Mo65	 0.133496	 0.765855	 0.500000 
Mo66	 0.272915	 0.728497	 0.500000 
S67	 0.213990	 0.787423	 1.000000 
S68	 0.213990	 0.787423	 0.000000 
S69	 0.883739	 0.219735	 1.000000 
S70	 0.883739	 0.219735	 0.000000 
Mo71	 0.765888	 0.337587	 0.500000 
Mo72	 0.905308	 0.300229	 0.500000 
S73	 0.846382	 0.359155	 1.000000 
S74	 0.846382	 0.359155	 0.000000 
S75	 0.706963	 0.396512	 1.000000 
S76	 0.706963	 0.396512	 0.000000 
Mo77	 0.589111	 0.514363	 0.500000 
Mo78	 0.728531	 0.477006	 0.500000 
S79	 0.669605	 0.535931	 1.000000 
S80	 0.669605	 0.535931	 0.000000 
S81	 0.530186	 0.573289	 1.000000 
S82	 0.530186	 0.573289	 0.000000 
Mo83	 0.412335	 0.691140	 0.500000 
Mo84	 0.551754	 0.653783	 0.500000 
S85	 0.492829	 0.712708	 1.000000 
S86	 0.492829	 0.712708	 0.000000 
S87	 0.353409	 0.750065	 1.000000 
S88	 0.353409	 0.750065	 0.000000 
Mo89	 0.235558	 0.867917	 0.500000 
Mo90	 0.374977	 0.830559	 0.500000 
S91	 0.316052	 0.889485	 1.000000 
S92	 0.316052	 0.889485	 0.000000 
S93	 0.985801	 0.321797	 1.000000 
S94	 0.985801	 0.321797	 0.000000 
Mo95	 0.867950	 0.439649	 0.500000 
S96	 0.948444	 0.461217	 1.000000 
S97	 0.948444	 0.461217	 0.000000 
S98	 0.809025	 0.498574	 1.000000 
S99	 0.809025	 0.498574	 0.000000 
Mo100	 0.691174	 0.616425	 0.500000 
Mo101	 0.830593	 0.579068	 0.500000 
S102	 0.771667	 0.637994	 1.000000 
S103	 0.771667	 0.637994	 0.000000 
S104	 0.632248	 0.675351	 1.000000 
S105	 0.632248	 0.675351	 0.000000 
Mo106	 0.514397	 0.793202	 0.500000 
Mo107	 0.653816	 0.755845	 0.500000 
S108	 0.594891	 0.814770	 1.000000 
S109	 0.594891	 0.814770	 0.000000 
S110	 0.455471	 0.852128	 1.000000 
S111	 0.455471	 0.852128	 0.000000 
Mo112	 0.337620	 0.969979	 0.500000 
Mo113	 0.477039	 0.932621	 0.500000 
S114	 0.418114	 0.991547	 1.000000 
S115	 0.418114	 0.991547	 0.000000 
Mo116	 0.970012	 0.541711	 0.500000 
S117	 0.911087	 0.600636	 1.000000 
S118	 0.911087	 0.600636	 0.000000 
Mo119	 0.793236	 0.718487	 0.500000 
Mo120	 0.320283	 0.068758	 0.500000 
S121	 0.261357	 0.127683	 1.000000 
S122	 0.261357	 0.127683	 0.000000 
S123	 0.734310	 0.777413	 1.000000 
S124	 0.734310	 0.777413	 0.000000 
Mo125	 0.616459	 0.895264	 0.500000 
Mo126	 0.143506	 0.245534	 0.500000 
S127	 0.084580	 0.304460	 1.000000 
S128	 0.084580	 0.304460	 0.000000 
S129	 0.557533	 0.954190	 1.000000 
S130	 0.557533	 0.954190	 0.000000 
#                 ---end-of-data-block---
