data_Pt structure along [001] nx 5 ny 5 nz 1
_cell_length_a               20.900000
_cell_length_b               20.900000
_cell_length_c               4.180000
_cell_angle_alpha          90.000000
_cell_angle_beta           90.000000
_cell_angle_gamma          90.000000
_symmetry_cell_setting          Triclinic
_symmetry_space_group_name_H-M 'P 1' 
loop_
_atom_site_label
_atom_site_fract_x
_atom_site_fract_y
_atom_site_fract_z
Co1	 0.847265	 0.089744	 0.500000 
Co2	 0.750672	 0.115626	 0.000000 
Co3	 0.724791	 0.019033	 0.500000 
Co4	 0.628198	 0.044915	 0.000000 
Co5	 0.654080	 0.141508	 0.500000 
Co6	 0.557487	 0.167390	 0.000000 
Co7	 0.531605	 0.070797	 0.500000 
Co8	 0.435013	 0.096679	 0.000000 
Co9	 0.460895	 0.193271	 0.500000 
Co10	 0.364302	 0.219153	 0.000000 
Co11	 0.338420	 0.122561	 0.500000 
Co12	 0.241828	 0.148443	 0.000000 
Co13	 0.267710	 0.245035	 0.500000 
Co14	 0.171117	 0.270917	 0.000000 
Co15	 0.145235	 0.174325	 0.500000 
Co16	 0.048642	 0.200207	 0.000000 
Co17	 0.074524	 0.296799	 0.500000 
Co18	 0.873147	 0.186336	 0.000000 
Co19	 0.899029	 0.282929	 0.500000 
Co20	 0.802436	 0.308811	 0.000000 
Co21	 0.776554	 0.212218	 0.500000 
Co22	 0.679962	 0.238100	 0.000000 
Co23	 0.705844	 0.334693	 0.500000 
Co24	 0.609251	 0.360575	 0.000000 
Co25	 0.583369	 0.263982	 0.500000 
Co26	 0.486777	 0.289864	 0.000000 
Co27	 0.512658	 0.386457	 0.500000 
Co28	 0.416066	 0.412339	 0.000000 
Co29	 0.390184	 0.315746	 0.500000 
Co30	 0.293591	 0.341628	 0.000000 
Co31	 0.319473	 0.438220	 0.500000 
Co32	 0.222881	 0.464102	 0.000000 
Co33	 0.196999	 0.367510	 0.500000 
Co34	 0.100406	 0.393392	 0.000000 
Co35	 0.126288	 0.489984	 0.500000 
Co36	 0.029696	 0.515866	 0.000000 
Co37	 0.003814	 0.419274	 0.500000 
Co38	 0.924911	 0.379522	 0.000000 
Co39	 0.950793	 0.476114	 0.500000 
Co40	 0.854200	 0.501996	 0.000000 
Co41	 0.828318	 0.405404	 0.500000 
Co42	 0.731726	 0.431285	 0.000000 
Co43	 0.757607	 0.527878	 0.500000 
Co44	 0.661015	 0.553760	 0.000000 
Co45	 0.635133	 0.457167	 0.500000 
Co46	 0.538540	 0.483049	 0.000000 
Co47	 0.564422	 0.579642	 0.500000 
Co48	 0.467830	 0.605524	 0.000000 
Co49	 0.441948	 0.508931	 0.500000 
Co50	 0.345355	 0.534813	 0.000000 
Co51	 0.371237	 0.631406	 0.500000 
Co52	 0.274645	 0.657288	 0.000000 
Co53	 0.248763	 0.560695	 0.500000 
Co54	 0.152170	 0.586577	 0.000000 
Co55	 0.178052	 0.683169	 0.500000 
Co56	 0.081459	 0.709051	 0.000000 
Co57	 0.055577	 0.612459	 0.500000 
Co58	 0.976675	 0.572707	 0.000000 
Co59	 0.905964	 0.695181	 0.000000 
Co60	 0.880082	 0.598589	 0.500000 
Co61	 0.783489	 0.624471	 0.000000 
Co62	 0.809371	 0.721063	 0.500000 
Co63	 0.712779	 0.746945	 0.000000 
Co64	 0.686897	 0.650352	 0.500000 
Co65	 0.590304	 0.676234	 0.000000 
Co66	 0.616186	 0.772827	 0.500000 
Co67	 0.519594	 0.798709	 0.000000 
Co68	 0.493712	 0.702116	 0.500000 
Co69	 0.397119	 0.727998	 0.000000 
Co70	 0.423001	 0.824591	 0.500000 
Co71	 0.326408	 0.850473	 0.000000 
Co72	 0.300526	 0.753880	 0.500000 
Co73	 0.203934	 0.779762	 0.000000 
Co74	 0.229816	 0.876355	 0.500000 
Co75	 0.133223	 0.902237	 0.000000 
Co76	 0.107341	 0.805644	 0.500000 
Co77	 0.957728	 0.888366	 0.000000 
Co78	 0.931846	 0.791774	 0.500000 
Co79	 0.835253	 0.817656	 0.000000 
Co80	 0.861135	 0.914248	 0.500000 
Co81	 0.764542	 0.940130	 0.000000 
Co82	 0.738661	 0.843538	 0.500000 
Co83	 0.642068	 0.869420	 0.000000 
Co84	 0.667950	 0.966012	 0.500000 
Co85	 0.571357	 0.991894	 0.000000 
Co86	 0.545475	 0.895301	 0.500000 
Co87	 0.448883	 0.921183	 0.000000 
Co88	 0.352290	 0.947065	 0.500000 
Co89	 0.255698	 0.972947	 0.000000 
Co90	 0.159105	 0.998829	 0.500000 
#                 ---end-of-data-block---
