data_NiO [110] nx 4 ny 3 nz 1
_cell_length_a               21.732000
_cell_length_b               21.732000
_cell_length_c               2.957500
_cell_angle_alpha          90.000000
_cell_angle_beta           90.000000
_cell_angle_gamma          90.000000
_symmetry_cell_setting          Triclinic
_symmetry_space_group_name_H-M 'P 1' 
loop_
_atom_site_label
_atom_site_fract_x
_atom_site_fract_y
_atom_site_fract_z
Ni1	 0.420344	 0.052029	 1.000000 
Ni2	 0.296740	 0.108973	 0.000000 
Ni3	 0.377271	 0.283774	 0.000000 
Ni4	 0.275204	 0.224846	 0.500000 
Ni5	 0.398806	 0.167901	 0.500000 
Ni6	 0.253677	 0.340704	 1.000000 
Ni7	 0.130073	 0.397648	 0.000000 
Ni8	 0.210604	 0.572449	 0.000000 
Ni9	 0.108538	 0.513521	 0.500000 
Ni10	 0.151611	 0.281776	 0.500000 
Ni11	 0.232140	 0.456576	 0.500000 
Ni12	 0.087010	 0.629379	 1.000000 
Ni13	 0.065473	 0.745251	 0.500000 
Ni14	 0.624477	 0.169885	 1.000000 
Ni15	 0.500873	 0.226829	 0.000000 
Ni16	 0.581404	 0.401630	 0.000000 
Ni17	 0.479337	 0.342702	 0.500000 
Ni18	 0.522410	 0.110957	 0.500000 
Ni19	 0.602939	 0.285757	 0.500000 
Ni20	 0.457810	 0.458560	 1.000000 
Ni21	 0.334206	 0.515504	 0.000000 
Ni22	 0.414737	 0.690305	 0.000000 
Ni23	 0.312671	 0.631377	 0.500000 
Ni24	 0.355744	 0.399632	 0.500000 
Ni25	 0.436272	 0.574432	 0.500000 
Ni26	 0.291143	 0.747236	 1.000000 
Ni27	 0.167539	 0.804179	 0.000000 
Ni28	 0.748070	 0.112955	 0.000000 
Ni29	 0.646004	 0.054027	 0.500000 
Ni30	 0.189077	 0.688307	 0.500000 
Ni31	 0.269606	 0.863107	 0.500000 
Ni32	 0.828610	 0.287741	 1.000000 
Ni33	 0.705006	 0.344685	 0.000000 
Ni34	 0.785536	 0.519486	 0.000000 
Ni35	 0.683470	 0.460558	 0.500000 
Ni36	 0.726543	 0.228813	 0.500000 
Ni37	 0.807072	 0.403613	 0.500000 
Ni38	 0.661943	 0.576417	 1.000000 
Ni39	 0.538339	 0.633360	 0.000000 
Ni40	 0.618870	 0.808161	 0.000000 
Ni41	 0.516803	 0.749233	 0.500000 
Ni42	 0.559876	 0.517488	 0.500000 
Ni43	 0.640405	 0.692288	 0.500000 
Ni44	 0.495276	 0.865092	 1.000000 
Ni45	 0.371672	 0.922035	 0.000000 
Ni46	 0.952203	 0.230811	 0.000000 
Ni47	 0.850137	 0.171883	 0.500000 
Ni48	 0.393210	 0.806164	 0.500000 
Ni49	 0.473739	 0.980963	 0.500000 
Ni50	 0.909138	 0.462541	 0.000000 
Ni51	 0.173138	 0.165918	 0.000000 
Ni52	 0.887603	 0.578414	 0.500000 
Ni53	 0.930676	 0.346669	 0.500000 
Ni54	 0.866076	 0.694273	 1.000000 
Ni55	 0.742472	 0.751216	 0.000000 
Ni56	 0.006471	 0.454593	 0.000000 
Ni57	 0.720936	 0.867089	 0.500000 
Ni58	 0.764009	 0.635345	 0.500000 
Ni59	 0.844538	 0.810144	 0.500000 
Ni60	 0.699409	 0.982948	 1.000000 
Ni61	 0.597343	 0.924020	 0.500000 
#                 ---end-of-data-block---
