data_Si [110] nx 5 ny 4 nz 1
_cell_length_a               21.720000
_cell_length_b               21.720000
_cell_length_c               3.839590
_cell_angle_alpha          90.000000
_cell_angle_beta           90.000000
_cell_angle_gamma          90.000000
_symmetry_cell_setting          Triclinic
_symmetry_space_group_name_H-M 'P 1' 
loop_
_atom_site_label
_atom_site_fract_x
_atom_site_fract_y
_atom_site_fract_z
Si1	 0.672921	 0.015073	 0.000000 
Si2	 0.514686	 0.148978	 0.000000 
Si3	 0.612550	 0.031249	 0.500000 
Si4	 0.575057	 0.132802	 0.500000 
Si5	 0.431439	 0.079778	 0.000000 
Si6	 0.273205	 0.213683	 0.000000 
Si7	 0.371069	 0.095954	 0.500000 
Si8	 0.333575	 0.197507	 0.500000 
Si9	 0.189958	 0.144482	 0.000000 
Si10	 0.031723	 0.278388	 0.000000 
Si11	 0.129588	 0.160659	 0.500000 
Si12	 0.092094	 0.262211	 0.500000 
Si13	 0.756168	 0.084273	 0.000000 
Si14	 0.816538	 0.068097	 0.500000 
Si15	 0.718674	 0.185826	 0.000000 
Si16	 0.560439	 0.319731	 0.000000 
Si17	 0.658304	 0.202002	 0.500000 
Si18	 0.620810	 0.303555	 0.500000 
Si19	 0.477193	 0.250531	 0.000000 
Si20	 0.318958	 0.384436	 0.000000 
Si21	 0.416822	 0.266707	 0.500000 
Si22	 0.379328	 0.368260	 0.500000 
Si23	 0.235711	 0.315236	 0.000000 
Si24	 0.077477	 0.449141	 0.000000 
Si25	 0.175341	 0.331412	 0.500000 
Si26	 0.137847	 0.432964	 0.500000 
Si27	 0.801921	 0.255026	 0.000000 
Si28	 0.899785	 0.137297	 0.500000 
Si29	 0.862291	 0.238850	 0.500000 
Si30	 0.764427	 0.356579	 0.000000 
Si31	 0.606193	 0.490484	 0.000000 
Si32	 0.704057	 0.372755	 0.500000 
Si33	 0.666563	 0.474308	 0.500000 
Si34	 0.522946	 0.421284	 0.000000 
Si35	 0.364711	 0.555189	 0.000000 
Si36	 0.462575	 0.437460	 0.500000 
Si37	 0.425082	 0.539013	 0.500000 
Si38	 0.281464	 0.485989	 0.000000 
Si39	 0.123230	 0.619894	 0.000000 
Si40	 0.221094	 0.502165	 0.500000 
Si41	 0.183600	 0.603718	 0.500000 
Si42	 0.039983	 0.550693	 0.000000 
Si43	 0.847674	 0.425780	 0.000000 
Si44	 0.945538	 0.308051	 0.500000 
Si45	 0.908044	 0.409603	 0.500000 
Si46	 0.810180	 0.527332	 0.000000 
Si47	 0.651946	 0.661238	 0.000000 
Si48	 0.749810	 0.543509	 0.500000 
Si49	 0.712316	 0.645061	 0.500000 
Si50	 0.568699	 0.592037	 0.000000 
Si51	 0.410464	 0.725942	 0.000000 
Si52	 0.508329	 0.608213	 0.500000 
Si53	 0.470835	 0.709766	 0.500000 
Si54	 0.327217	 0.656742	 0.000000 
Si55	 0.168983	 0.790647	 0.000000 
Si56	 0.266847	 0.672918	 0.500000 
Si57	 0.229353	 0.774471	 0.500000 
Si58	 0.085736	 0.721447	 0.000000 
Si59	 0.893427	 0.596533	 0.000000 
Si60	 0.991291	 0.478804	 0.500000 
Si61	 0.953798	 0.580357	 0.500000 
Si62	 0.855934	 0.698086	 0.000000 
Si63	 0.697699	 0.831991	 0.000000 
Si64	 0.795563	 0.714262	 0.500000 
Si65	 0.758069	 0.815814	 0.500000 
Si66	 0.614452	 0.762790	 0.000000 
Si67	 0.456218	 0.896695	 0.000000 
Si68	 0.554082	 0.778966	 0.500000 
Si69	 0.516588	 0.880519	 0.500000 
Si70	 0.372971	 0.827495	 0.000000 
Si71	 0.214736	 0.961400	 0.000000 
Si72	 0.312600	 0.843671	 0.500000 
Si73	 0.275106	 0.945224	 0.500000 
Si74	 0.131489	 0.892200	 0.000000 
Si75	 0.939180	 0.767286	 0.000000 
Si76	 0.999551	 0.751110	 0.500000 
#                 ---end-of-data-block---
