data_Si [110] nx 5 ny 4 nz 1
_cell_length_a               21.720000
_cell_length_b               21.720000
_cell_length_c               3.839590
_cell_angle_alpha          90.000000
_cell_angle_beta           90.000000
_cell_angle_gamma          90.000000
_symmetry_cell_setting          Triclinic
_symmetry_space_group_name_H-M 'P 1' 
loop_
_atom_site_label
_atom_site_fract_x
_atom_site_fract_y
_atom_site_fract_z
Si1	 0.864008	 0.127570	 0.000000 
Si2	 0.705774	 0.261476	 0.000000 
Si3	 0.803638	 0.143747	 0.500000 
Si4	 0.766144	 0.245299	 0.500000 
Si5	 0.622527	 0.192275	 0.000000 
Si6	 0.464292	 0.326180	 0.000000 
Si7	 0.562157	 0.208451	 0.500000 
Si8	 0.524663	 0.310004	 0.500000 
Si9	 0.381045	 0.256980	 0.000000 
Si10	 0.222811	 0.390885	 0.000000 
Si11	 0.320675	 0.273156	 0.500000 
Si12	 0.283181	 0.374709	 0.500000 
Si13	 0.139564	 0.321685	 0.000000 
Si14	 0.079194	 0.337861	 0.500000 
Si15	 0.041700	 0.439414	 0.500000 
Si16	 0.909762	 0.298324	 0.000000 
Si17	 0.751527	 0.432229	 0.000000 
Si18	 0.849391	 0.314500	 0.500000 
Si19	 0.811897	 0.416053	 0.500000 
Si20	 0.668280	 0.363028	 0.000000 
Si21	 0.510046	 0.496933	 0.000000 
Si22	 0.607910	 0.379205	 0.500000 
Si23	 0.570416	 0.480757	 0.500000 
Si24	 0.426799	 0.427733	 0.000000 
Si25	 0.268564	 0.561638	 0.000000 
Si26	 0.366428	 0.443909	 0.500000 
Si27	 0.328934	 0.545462	 0.500000 
Si28	 0.185317	 0.492438	 0.000000 
Si29	 0.027083	 0.626343	 0.000000 
Si30	 0.124947	 0.508614	 0.500000 
Si31	 0.087453	 0.610167	 0.500000 
Si32	 0.955515	 0.469077	 0.000000 
Si33	 0.797280	 0.602982	 0.000000 
Si34	 0.895144	 0.485253	 0.500000 
Si35	 0.857651	 0.586806	 0.500000 
Si36	 0.714033	 0.533782	 0.000000 
Si37	 0.555799	 0.667687	 0.000000 
Si38	 0.653663	 0.549958	 0.500000 
Si39	 0.616169	 0.651510	 0.500000 
Si40	 0.472552	 0.598486	 0.000000 
Si41	 0.314317	 0.732391	 0.000000 
Si42	 0.412181	 0.614662	 0.500000 
Si43	 0.374688	 0.716215	 0.500000 
Si44	 0.231070	 0.663191	 0.000000 
Si45	 0.072836	 0.797096	 0.000000 
Si46	 0.170700	 0.679367	 0.500000 
Si47	 0.133206	 0.780920	 0.500000 
Si48	 0.843033	 0.773735	 0.000000 
Si49	 0.940898	 0.656006	 0.500000 
Si50	 0.903404	 0.757559	 0.500000 
Si51	 0.759786	 0.704535	 0.000000 
Si52	 0.601552	 0.838440	 0.000000 
Si53	 0.699416	 0.720711	 0.500000 
Si54	 0.661922	 0.822264	 0.500000 
Si55	 0.518305	 0.769239	 0.000000 
Si56	 0.360070	 0.903145	 0.000000 
Si57	 0.457935	 0.785416	 0.500000 
Si58	 0.420441	 0.886968	 0.500000 
Si59	 0.276824	 0.833944	 0.000000 
Si60	 0.118589	 0.967849	 0.000000 
Si61	 0.216453	 0.850120	 0.500000 
Si62	 0.178959	 0.951673	 0.500000 
Si63	 0.660021	 0.090722	 0.000000 
Si64	 0.986651	 0.826759	 0.500000 
Si65	 0.720391	 0.074546	 0.500000 
Si66	 0.805540	 0.875288	 0.000000 
Si67	 0.418539	 0.155427	 0.000000 
Si68	 0.745169	 0.891464	 0.500000 
Si69	 0.478910	 0.139251	 0.500000 
Si70	 0.564058	 0.939993	 0.000000 
Si71	 0.177058	 0.220132	 0.000000 
Si72	 0.503688	 0.956169	 0.500000 
Si73	 0.237428	 0.203956	 0.500000 
#                 ---end-of-data-block---
