data_STO [001]5x5x1
_cell_length_a               19.525000
_cell_length_b               19.525000
_cell_length_c               3.905000
_cell_angle_alpha          90.000000
_cell_angle_beta           90.000000
_cell_angle_gamma          90.000000
_symmetry_cell_setting          Triclinic
_symmetry_space_group_name_H-M 'P 1' 
loop_
_atom_site_label
_atom_site_fract_x
_atom_site_fract_y
_atom_site_fract_z
Ti1	 0.667042	 0.057276	 0.500000 
Sr2	 0.530439	 0.020673	 0.000000 
Ti3	 0.493837	 0.157276	 0.500000 
Sr4	 0.357234	 0.120673	 0.000000 
Ti5	 0.320632	 0.257276	 0.500000 
Sr6	 0.184029	 0.220673	 0.000000 
Ti7	 0.147427	 0.357276	 0.500000 
Sr8	 0.010824	 0.320673	 0.000000 
Sr9	 0.803644	 0.093878	 0.000000 
Ti10	 0.767042	 0.230481	 0.500000 
Sr11	 0.630439	 0.193878	 0.000000 
Ti12	 0.593837	 0.330481	 0.500000 
Sr13	 0.457234	 0.293878	 0.000000 
Ti14	 0.420632	 0.430481	 0.500000 
Sr15	 0.284029	 0.393878	 0.000000 
Ti16	 0.247427	 0.530481	 0.500000 
Sr17	 0.110824	 0.493878	 0.000000 
Ti18	 0.074222	 0.630481	 0.500000 
Sr19	 0.903644	 0.267083	 0.000000 
Ti20	 0.867042	 0.403686	 0.500000 
Sr21	 0.730439	 0.367083	 0.000000 
Ti22	 0.693837	 0.503686	 0.500000 
Sr23	 0.557234	 0.467083	 0.000000 
Ti24	 0.520632	 0.603686	 0.500000 
Sr25	 0.384029	 0.567083	 0.000000 
Ti26	 0.347427	 0.703686	 0.500000 
Sr27	 0.210824	 0.667083	 0.000000 
Ti28	 0.174222	 0.803686	 0.500000 
Ti29	 0.967042	 0.576891	 0.500000 
Sr30	 0.830439	 0.540288	 0.000000 
Ti31	 0.793837	 0.676891	 0.500000 
Sr32	 0.657234	 0.640288	 0.000000 
Ti33	 0.620632	 0.776891	 0.500000 
Sr34	 0.484029	 0.740288	 0.000000 
Ti35	 0.447427	 0.876891	 0.500000 
Sr36	 0.310824	 0.840288	 0.000000 
Ti37	 0.274222	 0.976891	 0.500000 
Sr38	 0.930439	 0.713493	 0.000000 
Sr39	 0.757234	 0.813493	 0.000000 
Ti40	 0.220632	 0.084071	 0.500000 
Sr41	 0.584029	 0.913493	 0.000000 
Ti42	 0.047427	 0.184071	 0.500000 
#                 ---end-of-data-block---
