data_Pt structure along [001] nx 4 ny 5 nz 1
_cell_length_a               22.090016
_cell_length_b               22.090016
_cell_length_c               5.543717
_cell_angle_alpha          90.000000
_cell_angle_beta           90.000000
_cell_angle_gamma          90.000000
_symmetry_cell_setting          Triclinic
_symmetry_space_group_name_H-M 'P 1' 
loop_
_atom_site_label
_atom_site_fract_x
_atom_site_fract_y
_atom_site_fract_z
Ti1	 0.096296	 0.240585	 0.000000 
Sr2	 0.221296	 0.152197	 0.000000 
Ti3	 0.221296	 0.240585	 0.500000 
Sr4	 0.096296	 0.152197	 0.500000 
Ti5	 0.096296	 0.417362	 0.000000 
Sr6	 0.221296	 0.328973	 0.000000 
Ti7	 0.221296	 0.417362	 0.500000 
Sr8	 0.096296	 0.328973	 0.500000 
Ti9	 0.096296	 0.594138	 0.000000 
Sr10	 0.221296	 0.505750	 0.000000 
Ti11	 0.221296	 0.594138	 0.500000 
Sr12	 0.096296	 0.505750	 0.500000 
Ti13	 0.096296	 0.770915	 0.000000 
Sr14	 0.221296	 0.682527	 0.000000 
Ti15	 0.221296	 0.770915	 0.500000 
Sr16	 0.096296	 0.682527	 0.500000 
Ti17	 0.096296	 0.063808	 0.000000 
Sr18	 0.221296	 0.859303	 0.000000 
Ti19	 0.221296	 0.063808	 0.500000 
Sr20	 0.096296	 0.859303	 0.500000 
Ti21	 0.346296	 0.240585	 0.000000 
Sr22	 0.471296	 0.152197	 0.000000 
Ti23	 0.471296	 0.240585	 0.500000 
Sr24	 0.346296	 0.152197	 0.500000 
Ti25	 0.346296	 0.417362	 0.000000 
Sr26	 0.471296	 0.328973	 0.000000 
Ti27	 0.471296	 0.417362	 0.500000 
Sr28	 0.346296	 0.328973	 0.500000 
Ti29	 0.346296	 0.594138	 0.000000 
Sr30	 0.471296	 0.505750	 0.000000 
Ti31	 0.471296	 0.594138	 0.500000 
Sr32	 0.346296	 0.505750	 0.500000 
Ti33	 0.346296	 0.770915	 0.000000 
Sr34	 0.471296	 0.682527	 0.000000 
Ti35	 0.471296	 0.770915	 0.500000 
Sr36	 0.346296	 0.682527	 0.500000 
Ti37	 0.346296	 0.063808	 0.000000 
Sr38	 0.471296	 0.859303	 0.000000 
Ti39	 0.471296	 0.063808	 0.500000 
Sr40	 0.346296	 0.859303	 0.500000 
Ti41	 0.596296	 0.240585	 0.000000 
Sr42	 0.721296	 0.152197	 0.000000 
Ti43	 0.721296	 0.240585	 0.500000 
Sr44	 0.596296	 0.152197	 0.500000 
Ti45	 0.596296	 0.417362	 0.000000 
Sr46	 0.721296	 0.328973	 0.000000 
Ti47	 0.721296	 0.417362	 0.500000 
Sr48	 0.596296	 0.328973	 0.500000 
Ti49	 0.596296	 0.594138	 0.000000 
Sr50	 0.721296	 0.505750	 0.000000 
Ti51	 0.721296	 0.594138	 0.500000 
Sr52	 0.596296	 0.505750	 0.500000 
Ti53	 0.596296	 0.770915	 0.000000 
Sr54	 0.721296	 0.682527	 0.000000 
Ti55	 0.721296	 0.770915	 0.500000 
Sr56	 0.596296	 0.682527	 0.500000 
Ti57	 0.596296	 0.063808	 0.000000 
Sr58	 0.721296	 0.859303	 0.000000 
Ti59	 0.721296	 0.063808	 0.500000 
Sr60	 0.596296	 0.859303	 0.500000 
Ti61	 0.846296	 0.240585	 0.000000 
Sr62	 0.971296	 0.152197	 0.000000 
Ti63	 0.971296	 0.240585	 0.500000 
Sr64	 0.846296	 0.152197	 0.500000 
Ti65	 0.846296	 0.417362	 0.000000 
Sr66	 0.971296	 0.328973	 0.000000 
Ti67	 0.971296	 0.417362	 0.500000 
Sr68	 0.846296	 0.328973	 0.500000 
Ti69	 0.846296	 0.594138	 0.000000 
Sr70	 0.971296	 0.505750	 0.000000 
Ti71	 0.971296	 0.594138	 0.500000 
Sr72	 0.846296	 0.505750	 0.500000 
Ti73	 0.846296	 0.770915	 0.000000 
Sr74	 0.971296	 0.682527	 0.000000 
Ti75	 0.971296	 0.770915	 0.500000 
Sr76	 0.846296	 0.682527	 0.500000 
Ti77	 0.846296	 0.063808	 0.000000 
Sr78	 0.971296	 0.859303	 0.000000 
Ti79	 0.971296	 0.063808	 0.500000 
Sr80	 0.846296	 0.859303	 0.500000 
#                 ---end-of-data-block---
