data_Pt structure along [001] nx 4 ny 5 nz 1
_cell_length_a               22.090016
_cell_length_b               22.090016
_cell_length_c               5.543717
_cell_angle_alpha          90.000000
_cell_angle_beta           90.000000
_cell_angle_gamma          90.000000
_symmetry_cell_setting          Triclinic
_symmetry_space_group_name_H-M 'P 1' 
loop_
_atom_site_label
_atom_site_fract_x
_atom_site_fract_y
_atom_site_fract_z
Ti1	 0.388230	 0.036055	 0.500000 
Ti2	 0.191588	 0.126648	 0.000000 
Sr3	 0.344035	 0.112602	 0.000000 
Ti4	 0.299841	 0.189148	 0.500000 
Sr5	 0.235782	 0.050102	 0.500000 
Ti6	 0.103200	 0.279741	 0.000000 
Sr7	 0.255647	 0.265695	 0.000000 
Ti8	 0.211453	 0.342241	 0.500000 
Sr9	 0.147394	 0.203195	 0.500000 
Ti10	 0.014811	 0.432834	 0.000000 
Sr11	 0.167259	 0.418788	 0.000000 
Ti12	 0.123065	 0.495334	 0.500000 
Sr13	 0.059006	 0.356288	 0.500000 
Sr14	 0.078870	 0.571881	 0.000000 
Ti15	 0.034676	 0.648427	 0.500000 
Ti16	 0.496483	 0.098555	 0.000000 
Sr17	 0.648930	 0.084509	 0.000000 
Ti18	 0.604736	 0.161055	 0.500000 
Sr19	 0.540677	 0.022009	 0.500000 
Ti20	 0.408094	 0.251648	 0.000000 
Sr21	 0.560542	 0.237602	 0.000000 
Ti22	 0.516348	 0.314148	 0.500000 
Sr23	 0.452289	 0.175102	 0.500000 
Ti24	 0.319706	 0.404741	 0.000000 
Sr25	 0.472153	 0.390695	 0.000000 
Ti26	 0.427959	 0.467241	 0.500000 
Sr27	 0.363900	 0.328195	 0.500000 
Ti28	 0.231318	 0.557834	 0.000000 
Sr29	 0.383765	 0.543788	 0.000000 
Ti30	 0.339571	 0.620334	 0.500000 
Sr31	 0.275512	 0.481288	 0.500000 
Ti32	 0.142929	 0.710927	 0.000000 
Sr33	 0.295377	 0.696881	 0.000000 
Ti34	 0.251183	 0.773427	 0.500000 
Sr35	 0.187124	 0.634381	 0.500000 
Ti36	 0.712989	 0.223555	 0.000000 
Sr37	 0.865436	 0.209509	 0.000000 
Ti38	 0.821242	 0.286055	 0.500000 
Sr39	 0.757183	 0.147009	 0.500000 
Ti40	 0.624601	 0.376648	 0.000000 
Sr41	 0.777048	 0.362602	 0.000000 
Ti42	 0.732854	 0.439148	 0.500000 
Sr43	 0.668795	 0.300102	 0.500000 
Ti44	 0.536212	 0.529741	 0.000000 
Sr45	 0.688660	 0.515695	 0.000000 
Ti46	 0.644466	 0.592241	 0.500000 
Sr47	 0.580407	 0.453195	 0.500000 
Ti48	 0.447824	 0.682834	 0.000000 
Sr49	 0.600271	 0.668788	 0.000000 
Ti50	 0.556077	 0.745334	 0.500000 
Sr51	 0.492018	 0.606288	 0.500000 
Ti52	 0.359436	 0.835927	 0.000000 
Sr53	 0.511883	 0.821881	 0.000000 
Ti54	 0.467689	 0.898427	 0.500000 
Sr55	 0.403630	 0.759381	 0.500000 
Ti56	 0.929495	 0.348555	 0.000000 
Sr57	 0.973690	 0.272009	 0.500000 
Ti58	 0.841107	 0.501648	 0.000000 
Sr59	 0.993554	 0.487602	 0.000000 
Ti60	 0.949360	 0.564148	 0.500000 
Sr61	 0.885301	 0.425102	 0.500000 
Ti62	 0.752719	 0.654741	 0.000000 
Sr63	 0.905166	 0.640695	 0.000000 
Ti64	 0.860972	 0.717241	 0.500000 
Sr65	 0.796913	 0.578195	 0.500000 
Ti66	 0.664330	 0.807834	 0.000000 
Sr67	 0.816778	 0.793788	 0.000000 
Ti68	 0.772584	 0.870334	 0.500000 
Sr69	 0.708525	 0.731288	 0.500000 
Ti70	 0.575942	 0.960927	 0.000000 
Sr71	 0.728389	 0.946881	 0.000000 
Sr72	 0.620136	 0.884381	 0.500000 
#                 ---end-of-data-block---
