data_Pt structure along [001] nx 4 ny 5 nz 1
_cell_length_a               22.090016
_cell_length_b               22.090016
_cell_length_c               5.543717
_cell_angle_alpha          90.000000
_cell_angle_beta           90.000000
_cell_angle_gamma          90.000000
_symmetry_cell_setting          Triclinic
_symmetry_space_group_name_H-M 'P 1' 
loop_
_atom_site_label
_atom_site_fract_x
_atom_site_fract_y
_atom_site_fract_z
Ti1	 0.436868	 0.060631	 0.500000 
Ti2	 0.223479	 0.097243	 0.000000 
Sr3	 0.374368	 0.123131	 0.000000 
Ti4	 0.311868	 0.185631	 0.500000 
Sr5	 0.285979	 0.034743	 0.500000 
Ti6	 0.098479	 0.222243	 0.000000 
Sr7	 0.249368	 0.248131	 0.000000 
Ti8	 0.186868	 0.310631	 0.500000 
Sr9	 0.160979	 0.159743	 0.500000 
Sr10	 0.124368	 0.373131	 0.000000 
Ti11	 0.061868	 0.435631	 0.500000 
Sr12	 0.035979	 0.284743	 0.500000 
Ti13	 0.525256	 0.149019	 0.000000 
Sr14	 0.676144	 0.174908	 0.000000 
Ti15	 0.613644	 0.237408	 0.500000 
Sr16	 0.587756	 0.086519	 0.500000 
Ti17	 0.400256	 0.274019	 0.000000 
Sr18	 0.551144	 0.299908	 0.000000 
Ti19	 0.488644	 0.362408	 0.500000 
Sr20	 0.462756	 0.211519	 0.500000 
Ti21	 0.275256	 0.399019	 0.000000 
Sr22	 0.426144	 0.424908	 0.000000 
Ti23	 0.363644	 0.487408	 0.500000 
Sr24	 0.337756	 0.336519	 0.500000 
Ti25	 0.150256	 0.524019	 0.000000 
Sr26	 0.301144	 0.549908	 0.000000 
Ti27	 0.238644	 0.612408	 0.500000 
Sr28	 0.212756	 0.461519	 0.500000 
Ti29	 0.025256	 0.649019	 0.000000 
Sr30	 0.176144	 0.674908	 0.000000 
Ti31	 0.113644	 0.737408	 0.500000 
Sr32	 0.087756	 0.586519	 0.500000 
Ti33	 0.702033	 0.325796	 0.000000 
Sr34	 0.852921	 0.351685	 0.000000 
Ti35	 0.790421	 0.414185	 0.500000 
Sr36	 0.764533	 0.263296	 0.500000 
Ti37	 0.577033	 0.450796	 0.000000 
Sr38	 0.727921	 0.476685	 0.000000 
Ti39	 0.665421	 0.539185	 0.500000 
Sr40	 0.639533	 0.388296	 0.500000 
Ti41	 0.452033	 0.575796	 0.000000 
Sr42	 0.602921	 0.601685	 0.000000 
Ti43	 0.540421	 0.664185	 0.500000 
Sr44	 0.514533	 0.513296	 0.500000 
Ti45	 0.327033	 0.700796	 0.000000 
Sr46	 0.477921	 0.726685	 0.000000 
Ti47	 0.415421	 0.789185	 0.500000 
Sr48	 0.389533	 0.638296	 0.500000 
Ti49	 0.202033	 0.825796	 0.000000 
Sr50	 0.352921	 0.851685	 0.000000 
Ti51	 0.290421	 0.914185	 0.500000 
Sr52	 0.264533	 0.763296	 0.500000 
Ti53	 0.878809	 0.502573	 0.000000 
Ti54	 0.967198	 0.590961	 0.500000 
Sr55	 0.941309	 0.440073	 0.500000 
Ti56	 0.753809	 0.627573	 0.000000 
Sr57	 0.904698	 0.653461	 0.000000 
Ti58	 0.842198	 0.715961	 0.500000 
Sr59	 0.816309	 0.565073	 0.500000 
Ti60	 0.628809	 0.752573	 0.000000 
Sr61	 0.779698	 0.778461	 0.000000 
Ti62	 0.717198	 0.840961	 0.500000 
Sr63	 0.691309	 0.690073	 0.500000 
Ti64	 0.503809	 0.877573	 0.000000 
Sr65	 0.654698	 0.903461	 0.000000 
Ti66	 0.592198	 0.965961	 0.500000 
Sr67	 0.566309	 0.815073	 0.500000 
Sr68	 0.441309	 0.940073	 0.500000 
#                 ---end-of-data-block---
