data_Pt structure along [001] nx 4 ny 5 nz 1
_cell_length_a               22.090016
_cell_length_b               22.090016
_cell_length_c               5.543717
_cell_angle_alpha          90.000000
_cell_angle_beta           90.000000
_cell_angle_gamma          90.000000
_symmetry_cell_setting          Triclinic
_symmetry_space_group_name_H-M 'P 1' 
loop_
_atom_site_label
_atom_site_fract_x
_atom_site_fract_y
_atom_site_fract_z
Ti1	 0.499342	 0.000784	 0.000000 
Sr2	 0.650230	 0.026673	 0.000000 
Ti3	 0.587730	 0.089173	 0.500000 
Ti4	 0.374342	 0.125784	 0.000000 
Sr5	 0.525230	 0.151673	 0.000000 
Ti6	 0.462730	 0.214173	 0.500000 
Sr7	 0.436842	 0.063284	 0.500000 
Ti8	 0.249342	 0.250784	 0.000000 
Sr9	 0.400230	 0.276673	 0.000000 
Ti10	 0.337730	 0.339173	 0.500000 
Sr11	 0.311842	 0.188284	 0.500000 
Ti12	 0.124342	 0.375784	 0.000000 
Sr13	 0.275230	 0.401673	 0.000000 
Ti14	 0.212730	 0.464173	 0.500000 
Sr15	 0.186842	 0.313284	 0.500000 
Sr16	 0.150230	 0.526673	 0.000000 
Ti17	 0.087730	 0.589173	 0.500000 
Sr18	 0.061842	 0.438284	 0.500000 
Ti19	 0.676118	 0.177561	 0.000000 
Sr20	 0.827007	 0.203450	 0.000000 
Ti21	 0.764507	 0.265950	 0.500000 
Sr22	 0.738618	 0.115061	 0.500000 
Ti23	 0.551118	 0.302561	 0.000000 
Sr24	 0.702007	 0.328450	 0.000000 
Ti25	 0.639507	 0.390950	 0.500000 
Sr26	 0.613618	 0.240061	 0.500000 
Ti27	 0.426118	 0.427561	 0.000000 
Sr28	 0.577007	 0.453450	 0.000000 
Ti29	 0.514507	 0.515950	 0.500000 
Sr30	 0.488618	 0.365061	 0.500000 
Ti31	 0.301118	 0.552561	 0.000000 
Sr32	 0.452007	 0.578450	 0.000000 
Ti33	 0.389507	 0.640950	 0.500000 
Sr34	 0.363618	 0.490061	 0.500000 
Ti35	 0.176118	 0.677561	 0.000000 
Sr36	 0.327007	 0.703450	 0.000000 
Ti37	 0.264507	 0.765950	 0.500000 
Sr38	 0.238618	 0.615061	 0.500000 
Ti39	 0.852895	 0.354338	 0.000000 
Ti40	 0.941284	 0.442726	 0.500000 
Sr41	 0.915395	 0.291838	 0.500000 
Ti42	 0.727895	 0.479338	 0.000000 
Sr43	 0.878784	 0.505226	 0.000000 
Ti44	 0.816284	 0.567726	 0.500000 
Sr45	 0.790395	 0.416838	 0.500000 
Ti46	 0.602895	 0.604338	 0.000000 
Sr47	 0.753784	 0.630226	 0.000000 
Ti48	 0.691284	 0.692726	 0.500000 
Sr49	 0.665395	 0.541838	 0.500000 
Ti50	 0.477895	 0.729338	 0.000000 
Sr51	 0.628784	 0.755226	 0.000000 
Ti52	 0.566284	 0.817726	 0.500000 
Sr53	 0.540395	 0.666838	 0.500000 
Ti54	 0.352895	 0.854338	 0.000000 
Sr55	 0.503784	 0.880226	 0.000000 
Ti56	 0.441284	 0.942726	 0.500000 
Sr57	 0.415395	 0.791838	 0.500000 
Ti58	 0.904672	 0.656115	 0.000000 
Ti59	 0.285953	 0.037396	 0.500000 
Sr60	 0.967172	 0.593615	 0.500000 
Ti61	 0.779672	 0.781115	 0.000000 
Sr62	 0.223453	 0.099896	 0.000000 
Ti63	 0.160953	 0.162396	 0.500000 
Sr64	 0.842172	 0.718615	 0.500000 
Ti65	 0.654672	 0.906115	 0.000000 
Sr66	 0.098453	 0.224896	 0.000000 
Ti67	 0.035953	 0.287396	 0.500000 
Sr68	 0.717172	 0.843615	 0.500000 
Sr69	 0.592172	 0.968615	 0.500000 
#                 ---end-of-data-block---
