data_Pt structure along [001] nx 4 ny 5 nz 1
_cell_length_a               22.090016
_cell_length_b               22.090016
_cell_length_c               5.543717
_cell_angle_alpha          90.000000
_cell_angle_beta           90.000000
_cell_angle_gamma          90.000000
_symmetry_cell_setting          Triclinic
_symmetry_space_group_name_H-M 'P 1' 
loop_
_atom_site_label
_atom_site_fract_x
_atom_site_fract_y
_atom_site_fract_z
Ti1	 0.609193	 0.024178	 0.500000 
Ti2	 0.393600	 0.004313	 0.000000 
Sr3	 0.532646	 0.068372	 0.000000 
Ti4	 0.456100	 0.112566	 0.500000 
Ti5	 0.240506	 0.092701	 0.000000 
Sr6	 0.379553	 0.156760	 0.000000 
Ti7	 0.303006	 0.200954	 0.500000 
Sr8	 0.317053	 0.048507	 0.500000 
Ti9	 0.087413	 0.181089	 0.000000 
Sr10	 0.226460	 0.245148	 0.000000 
Ti11	 0.149913	 0.289343	 0.500000 
Sr12	 0.163960	 0.136895	 0.500000 
Sr13	 0.073367	 0.333537	 0.000000 
Sr14	 0.010867	 0.225284	 0.500000 
Ti15	 0.671693	 0.132431	 0.000000 
Sr16	 0.810739	 0.196490	 0.000000 
Ti17	 0.734193	 0.240684	 0.500000 
Sr18	 0.748239	 0.088237	 0.500000 
Ti19	 0.518600	 0.220819	 0.000000 
Sr20	 0.657646	 0.284878	 0.000000 
Ti21	 0.581100	 0.329072	 0.500000 
Sr22	 0.595146	 0.176625	 0.500000 
Ti23	 0.365506	 0.309207	 0.000000 
Sr24	 0.504553	 0.373266	 0.000000 
Ti25	 0.428006	 0.417461	 0.500000 
Sr26	 0.442053	 0.265013	 0.500000 
Ti27	 0.212413	 0.397596	 0.000000 
Sr28	 0.351460	 0.461655	 0.000000 
Ti29	 0.274913	 0.505849	 0.500000 
Sr30	 0.288960	 0.353402	 0.500000 
Ti31	 0.059320	 0.485984	 0.000000 
Sr32	 0.198367	 0.550043	 0.000000 
Ti33	 0.121820	 0.594237	 0.500000 
Sr34	 0.135867	 0.441790	 0.500000 
Ti35	 0.796693	 0.348937	 0.000000 
Sr36	 0.935739	 0.412996	 0.000000 
Ti37	 0.859193	 0.457190	 0.500000 
Sr38	 0.873239	 0.304743	 0.500000 
Ti39	 0.643600	 0.437325	 0.000000 
Sr40	 0.782646	 0.501384	 0.000000 
Ti41	 0.706100	 0.545579	 0.500000 
Sr42	 0.720146	 0.393131	 0.500000 
Ti43	 0.490506	 0.525714	 0.000000 
Sr44	 0.629553	 0.589773	 0.000000 
Ti45	 0.553006	 0.633967	 0.500000 
Sr46	 0.567053	 0.481520	 0.500000 
Ti47	 0.337413	 0.614102	 0.000000 
Sr48	 0.476460	 0.678161	 0.000000 
Ti49	 0.399913	 0.722355	 0.500000 
Sr50	 0.413960	 0.569908	 0.500000 
Ti51	 0.184320	 0.702491	 0.000000 
Sr52	 0.323367	 0.766550	 0.000000 
Ti53	 0.246820	 0.810744	 0.500000 
Sr54	 0.260867	 0.658296	 0.500000 
Ti55	 0.921693	 0.565443	 0.000000 
Ti56	 0.984193	 0.673697	 0.500000 
Sr57	 0.998239	 0.521249	 0.500000 
Ti58	 0.768600	 0.653832	 0.000000 
Sr59	 0.907646	 0.717891	 0.000000 
Ti60	 0.831100	 0.762085	 0.500000 
Sr61	 0.845146	 0.609638	 0.500000 
Ti62	 0.615506	 0.742220	 0.000000 
Sr63	 0.754553	 0.806279	 0.000000 
Ti64	 0.678006	 0.850473	 0.500000 
Sr65	 0.692053	 0.698026	 0.500000 
Ti66	 0.462413	 0.830609	 0.000000 
Sr67	 0.601460	 0.894668	 0.000000 
Ti68	 0.524913	 0.938862	 0.500000 
Sr69	 0.538960	 0.786414	 0.500000 
Ti70	 0.309320	 0.918997	 0.000000 
Sr71	 0.448367	 0.983056	 0.000000 
Sr72	 0.385867	 0.874803	 0.500000 
#                 ---end-of-data-block---
