data_Pt structure along [001] nx 4 ny 5 nz 1
_cell_length_a               22.090016
_cell_length_b               22.090016
_cell_length_c               5.543717
_cell_angle_alpha          90.000000
_cell_angle_beta           90.000000
_cell_angle_gamma          90.000000
_symmetry_cell_setting          Triclinic
_symmetry_space_group_name_H-M 'P 1' 
loop_
_atom_site_label
_atom_site_fract_x
_atom_site_fract_y
_atom_site_fract_z
Ti1	 0.585743	 0.019297	 0.000000 
Sr2	 0.703471	 0.117161	 0.000000 
Ti3	 0.618095	 0.140038	 0.500000 
Ti4	 0.414989	 0.065050	 0.000000 
Sr5	 0.532718	 0.162914	 0.000000 
Ti6	 0.447342	 0.185791	 0.500000 
Sr7	 0.500366	 0.042174	 0.500000 
Ti8	 0.244236	 0.110803	 0.000000 
Sr9	 0.361965	 0.208668	 0.000000 
Ti10	 0.276589	 0.231544	 0.500000 
Sr11	 0.329613	 0.087927	 0.500000 
Ti12	 0.073483	 0.156557	 0.000000 
Sr13	 0.191212	 0.254421	 0.000000 
Ti14	 0.105835	 0.277297	 0.500000 
Sr15	 0.158860	 0.133680	 0.500000 
Sr16	 0.020459	 0.300174	 0.000000 
Ti17	 0.788848	 0.094285	 0.500000 
Ti18	 0.650447	 0.260779	 0.000000 
Sr19	 0.768176	 0.358643	 0.000000 
Ti20	 0.682800	 0.381519	 0.500000 
Sr21	 0.735824	 0.237902	 0.500000 
Ti22	 0.479694	 0.306532	 0.000000 
Sr23	 0.597423	 0.404396	 0.000000 
Ti24	 0.512046	 0.427272	 0.500000 
Sr25	 0.565071	 0.283655	 0.500000 
Ti26	 0.308941	 0.352285	 0.000000 
Sr27	 0.426670	 0.450149	 0.000000 
Ti28	 0.341293	 0.473026	 0.500000 
Sr29	 0.394318	 0.329408	 0.500000 
Ti30	 0.138188	 0.398038	 0.000000 
Sr31	 0.255917	 0.495902	 0.000000 
Ti32	 0.170540	 0.518779	 0.500000 
Sr33	 0.223564	 0.375162	 0.500000 
Ti34	 0.821200	 0.215025	 0.000000 
Sr35	 0.085164	 0.541655	 0.000000 
Ti36	 0.853553	 0.335766	 0.500000 
Sr37	 0.052811	 0.420915	 0.500000 
Ti38	 0.715152	 0.502260	 0.000000 
Sr39	 0.832881	 0.600124	 0.000000 
Ti40	 0.747504	 0.623001	 0.500000 
Sr41	 0.800529	 0.479383	 0.500000 
Ti42	 0.544399	 0.548013	 0.000000 
Sr43	 0.662128	 0.645877	 0.000000 
Ti44	 0.576751	 0.668754	 0.500000 
Sr45	 0.629775	 0.525137	 0.500000 
Ti46	 0.373646	 0.593766	 0.000000 
Sr47	 0.491375	 0.691631	 0.000000 
Ti48	 0.405998	 0.714507	 0.500000 
Sr49	 0.459022	 0.570890	 0.500000 
Ti50	 0.202893	 0.639520	 0.000000 
Sr51	 0.320621	 0.737384	 0.000000 
Ti52	 0.235245	 0.760260	 0.500000 
Sr53	 0.288269	 0.616643	 0.500000 
Ti54	 0.885905	 0.456507	 0.000000 
Sr55	 0.149868	 0.783137	 0.000000 
Ti56	 0.918258	 0.577248	 0.500000 
Sr57	 0.117516	 0.662396	 0.500000 
Ti58	 0.779857	 0.743741	 0.000000 
Sr59	 0.897586	 0.841606	 0.000000 
Ti60	 0.812209	 0.864482	 0.500000 
Sr61	 0.865233	 0.720865	 0.500000 
Ti62	 0.609104	 0.789495	 0.000000 
Sr63	 0.726833	 0.887359	 0.000000 
Ti64	 0.641456	 0.910235	 0.500000 
Sr65	 0.694480	 0.766618	 0.500000 
Ti66	 0.438350	 0.835248	 0.000000 
Sr67	 0.556079	 0.933112	 0.000000 
Ti68	 0.470703	 0.955989	 0.500000 
Sr69	 0.523727	 0.812371	 0.500000 
Ti70	 0.267597	 0.881001	 0.000000 
Sr71	 0.385326	 0.978865	 0.000000 
Sr72	 0.352974	 0.858124	 0.500000 
Ti73	 0.950610	 0.697988	 0.000000 
Ti74	 0.982962	 0.818729	 0.500000 
Sr75	 0.182221	 0.903878	 0.500000 
#                 ---end-of-data-block---
