data_Pt structure along [001] nx 4 ny 5 nz 1
_cell_length_a               22.090016
_cell_length_b               22.090016
_cell_length_c               5.543717
_cell_angle_alpha          90.000000
_cell_angle_beta           90.000000
_cell_angle_gamma          90.000000
_symmetry_cell_setting          Triclinic
_symmetry_space_group_name_H-M 'P 1' 
loop_
_atom_site_label
_atom_site_fract_x
_atom_site_fract_y
_atom_site_fract_z
Sr1	 0.829436	 0.080955	 0.000000 
Ti2	 0.744059	 0.103832	 0.500000 
Ti3	 0.540953	 0.028844	 0.000000 
Sr4	 0.658682	 0.126708	 0.000000 
Ti5	 0.573306	 0.149585	 0.500000 
Sr6	 0.626330	 0.005968	 0.500000 
Ti7	 0.370200	 0.074597	 0.000000 
Sr8	 0.487929	 0.172462	 0.000000 
Ti9	 0.402553	 0.195338	 0.500000 
Sr10	 0.455577	 0.051721	 0.500000 
Ti11	 0.199447	 0.120351	 0.000000 
Sr12	 0.317176	 0.218215	 0.000000 
Ti13	 0.231799	 0.241091	 0.500000 
Sr14	 0.284824	 0.097474	 0.500000 
Ti15	 0.028694	 0.166104	 0.000000 
Sr16	 0.146423	 0.263968	 0.000000 
Ti17	 0.061046	 0.286845	 0.500000 
Sr18	 0.114070	 0.143227	 0.500000 
Ti19	 0.776411	 0.224573	 0.000000 
Sr20	 0.894140	 0.322437	 0.000000 
Ti21	 0.808764	 0.345313	 0.500000 
Sr22	 0.861788	 0.201696	 0.500000 
Ti23	 0.605658	 0.270326	 0.000000 
Sr24	 0.723387	 0.368190	 0.000000 
Ti25	 0.638011	 0.391066	 0.500000 
Sr26	 0.691035	 0.247449	 0.500000 
Ti27	 0.434905	 0.316079	 0.000000 
Sr28	 0.552634	 0.413943	 0.000000 
Ti29	 0.467257	 0.436820	 0.500000 
Sr30	 0.520282	 0.293202	 0.500000 
Ti31	 0.264152	 0.361832	 0.000000 
Sr32	 0.381881	 0.459696	 0.000000 
Ti33	 0.296504	 0.482573	 0.500000 
Sr34	 0.349528	 0.338955	 0.500000 
Ti35	 0.093399	 0.407585	 0.000000 
Sr36	 0.211128	 0.505449	 0.000000 
Ti37	 0.125751	 0.528326	 0.500000 
Sr38	 0.178775	 0.384709	 0.500000 
Ti39	 0.841116	 0.466054	 0.000000 
Sr40	 0.958845	 0.563918	 0.000000 
Ti41	 0.873468	 0.586795	 0.500000 
Sr42	 0.926493	 0.443177	 0.500000 
Ti43	 0.670363	 0.511807	 0.000000 
Sr44	 0.788092	 0.609671	 0.000000 
Ti45	 0.702715	 0.632548	 0.500000 
Sr46	 0.755739	 0.488931	 0.500000 
Ti47	 0.499610	 0.557560	 0.000000 
Sr48	 0.617339	 0.655425	 0.000000 
Ti49	 0.531962	 0.678301	 0.500000 
Sr50	 0.584986	 0.534684	 0.500000 
Ti51	 0.328857	 0.603314	 0.000000 
Sr52	 0.446586	 0.701178	 0.000000 
Ti53	 0.361209	 0.724054	 0.500000 
Sr54	 0.414233	 0.580437	 0.500000 
Ti55	 0.158103	 0.649067	 0.000000 
Sr56	 0.275832	 0.746931	 0.000000 
Ti57	 0.190456	 0.769807	 0.500000 
Sr58	 0.243480	 0.626190	 0.500000 
Ti59	 0.905821	 0.707535	 0.000000 
Ti60	 0.938173	 0.828276	 0.500000 
Sr61	 0.991197	 0.684659	 0.500000 
Ti62	 0.735068	 0.753289	 0.000000 
Sr63	 0.852797	 0.851153	 0.000000 
Ti64	 0.767420	 0.874029	 0.500000 
Sr65	 0.820444	 0.730412	 0.500000 
Ti66	 0.564314	 0.799042	 0.000000 
Sr67	 0.682043	 0.896906	 0.000000 
Ti68	 0.596667	 0.919783	 0.500000 
Sr69	 0.649691	 0.776165	 0.500000 
Ti70	 0.393561	 0.844795	 0.000000 
Sr71	 0.511290	 0.942659	 0.000000 
Ti72	 0.425914	 0.965536	 0.500000 
Sr73	 0.478938	 0.821918	 0.500000 
Ti74	 0.222808	 0.890548	 0.000000 
Sr75	 0.340537	 0.988412	 0.000000 
Sr76	 0.308185	 0.867672	 0.500000 
#                 ---end-of-data-block---
