data_A fcc partile with size of 16 A with 100/111/110 ratio of 1/0.861811/2
_cell_length_a               23.520000
_cell_length_b               23.520000
_cell_length_c               23.520000
_cell_angle_alpha          90.000000
_cell_angle_beta           90.000000
_cell_angle_gamma          90.000000
_symmetry_cell_setting          Triclinic
_symmetry_space_group_name_H-M 'P 1' 
loop_
_atom_site_label
_atom_site_fract_x
_atom_site_fract_y
_atom_site_fract_z
Pt1	 0.288140	 0.465710	 0.250000 
Pt2	 0.492264	 0.347859	 0.250000 
Pt3	 0.470696	 0.428353	 0.166667 
Pt4	 0.390202	 0.406784	 0.250000 
Pt5	 0.368634	 0.487278	 0.166667 
Pt6	 0.449128	 0.508846	 0.250000 
Pt7	 0.427559	 0.589340	 0.166667 
Pt8	 0.347066	 0.567772	 0.250000 
Pt9	 0.405991	 0.669834	 0.250000 
Pt10	 0.594326	 0.288933	 0.250000 
Pt11	 0.572758	 0.369427	 0.166667 
Pt12	 0.653252	 0.390995	 0.250000 
Pt13	 0.631684	 0.471489	 0.166667 
Pt14	 0.551190	 0.449921	 0.250000 
Pt15	 0.529622	 0.530415	 0.166667 
Pt16	 0.610115	 0.551983	 0.250000 
Pt17	 0.588547	 0.632477	 0.166667 
Pt18	 0.508053	 0.610908	 0.250000 
Pt19	 0.486485	 0.691402	 0.166667 
Pt20	 0.566979	 0.712971	 0.250000 
Pt21	 0.464917	 0.771896	 0.250000 
Pt22	 0.712177	 0.493057	 0.250000 
Pt23	 0.690609	 0.573551	 0.166667 
Pt24	 0.771103	 0.595119	 0.250000 
Pt25	 0.669041	 0.654045	 0.250000 
Pt26	 0.331277	 0.304722	 0.416667 
Pt27	 0.309708	 0.385216	 0.333333 
Pt28	 0.229214	 0.363648	 0.416667 
Pt29	 0.207646	 0.444142	 0.333333 
Pt30	 0.288140	 0.465710	 0.416667 
Pt31	 0.266572	 0.546204	 0.333333 
Pt32	 0.186078	 0.524635	 0.416667 
Pt33	 0.245004	 0.626698	 0.416667 
Pt34	 0.535401	 0.186871	 0.416667 
Pt35	 0.513832	 0.267365	 0.333333 
Pt36	 0.433339	 0.245797	 0.416667 
Pt37	 0.411770	 0.326291	 0.333333 
Pt38	 0.492264	 0.347859	 0.416667 
Pt39	 0.470696	 0.428353	 0.333333 
Pt40	 0.390202	 0.406784	 0.416667 
Pt41	 0.368634	 0.487278	 0.333333 
Pt42	 0.449128	 0.508846	 0.416667 
Pt43	 0.427559	 0.589340	 0.333333 
Pt44	 0.347066	 0.567772	 0.416667 
Pt45	 0.325497	 0.648266	 0.333333 
Pt46	 0.405991	 0.669834	 0.416667 
Pt47	 0.384423	 0.750328	 0.333333 
Pt48	 0.303929	 0.728760	 0.416667 
Pt49	 0.362855	 0.830822	 0.416667 
Pt50	 0.615895	 0.208439	 0.333333 
Pt51	 0.696388	 0.230008	 0.416667 
Pt52	 0.674820	 0.310501	 0.333333 
Pt53	 0.594326	 0.288933	 0.416667 
Pt54	 0.572758	 0.369427	 0.333333 
Pt55	 0.653252	 0.390995	 0.416667 
Pt56	 0.631684	 0.471489	 0.333333 
Pt57	 0.551190	 0.449921	 0.416667 
Pt58	 0.529622	 0.530415	 0.333333 
Pt59	 0.610115	 0.551983	 0.416667 
Pt60	 0.588547	 0.632477	 0.333333 
Pt61	 0.508053	 0.610908	 0.416667 
Pt62	 0.486485	 0.691402	 0.333333 
Pt63	 0.566979	 0.712971	 0.416667 
Pt64	 0.545411	 0.793464	 0.333333 
Pt65	 0.464917	 0.771896	 0.416667 
Pt66	 0.443348	 0.852390	 0.333333 
Pt67	 0.523842	 0.873958	 0.416667 
Pt68	 0.755314	 0.332070	 0.416667 
Pt69	 0.733746	 0.412564	 0.333333 
Pt70	 0.814239	 0.434132	 0.416667 
Pt71	 0.792671	 0.514626	 0.333333 
Pt72	 0.712177	 0.493057	 0.416667 
Pt73	 0.690609	 0.573551	 0.333333 
Pt74	 0.771103	 0.595119	 0.416667 
Pt75	 0.749535	 0.675613	 0.333333 
Pt76	 0.669041	 0.654045	 0.416667 
Pt77	 0.647473	 0.734539	 0.333333 
Pt78	 0.727966	 0.756107	 0.416667 
Pt79	 0.625904	 0.815033	 0.416667 
Pt80	 0.873165	 0.536194	 0.416667 
Pt81	 0.851597	 0.616688	 0.333333 
Pt82	 0.830029	 0.697182	 0.416667 
Pt83	 0.352845	 0.224228	 0.500000 
Pt84	 0.250783	 0.283154	 0.500000 
Pt85	 0.331277	 0.304722	 0.583333 
Pt86	 0.309708	 0.385216	 0.500000 
Pt87	 0.229214	 0.363648	 0.583333 
Pt88	 0.207646	 0.444142	 0.500000 
Pt89	 0.288140	 0.465710	 0.583333 
Pt90	 0.266572	 0.546204	 0.500000 
Pt91	 0.186078	 0.524635	 0.583333 
Pt92	 0.164510	 0.605129	 0.500000 
Pt93	 0.245004	 0.626698	 0.583333 
Pt94	 0.223435	 0.707191	 0.500000 
Pt95	 0.454907	 0.165303	 0.500000 
Pt96	 0.535401	 0.186871	 0.583333 
Pt97	 0.513832	 0.267365	 0.500000 
Pt98	 0.433339	 0.245797	 0.583333 
Pt99	 0.411770	 0.326291	 0.500000 
Pt100	 0.492264	 0.347859	 0.583333 
Pt101	 0.470696	 0.428353	 0.500000 
Pt102	 0.390202	 0.406784	 0.583333 
Pt103	 0.368634	 0.487278	 0.500000 
Pt104	 0.449128	 0.508846	 0.583333 
Pt105	 0.427559	 0.589340	 0.500000 
Pt106	 0.347066	 0.567772	 0.583333 
Pt107	 0.325497	 0.648266	 0.500000 
Pt108	 0.405991	 0.669834	 0.583333 
Pt109	 0.384423	 0.750328	 0.500000 
Pt110	 0.303929	 0.728760	 0.583333 
Pt111	 0.282361	 0.809253	 0.500000 
Pt112	 0.362855	 0.830822	 0.583333 
Pt113	 0.615895	 0.208439	 0.500000 
Pt114	 0.696388	 0.230008	 0.583333 
Pt115	 0.674820	 0.310501	 0.500000 
Pt116	 0.594326	 0.288933	 0.583333 
Pt117	 0.572758	 0.369427	 0.500000 
Pt118	 0.653252	 0.390995	 0.583333 
Pt119	 0.631684	 0.471489	 0.500000 
Pt120	 0.551190	 0.449921	 0.583333 
Pt121	 0.529622	 0.530415	 0.500000 
Pt122	 0.610115	 0.551983	 0.583333 
Pt123	 0.588547	 0.632477	 0.500000 
Pt124	 0.508053	 0.610908	 0.583333 
Pt125	 0.486485	 0.691402	 0.500000 
Pt126	 0.566979	 0.712971	 0.583333 
Pt127	 0.545411	 0.793464	 0.500000 
Pt128	 0.464917	 0.771896	 0.583333 
Pt129	 0.443348	 0.852390	 0.500000 
Pt130	 0.523842	 0.873958	 0.583333 
Pt131	 0.776882	 0.251576	 0.500000 
Pt132	 0.835808	 0.353638	 0.500000 
Pt133	 0.755314	 0.332070	 0.583333 
Pt134	 0.733746	 0.412564	 0.500000 
Pt135	 0.814239	 0.434132	 0.583333 
Pt136	 0.792671	 0.514626	 0.500000 
Pt137	 0.712177	 0.493057	 0.583333 
Pt138	 0.690609	 0.573551	 0.500000 
Pt139	 0.771103	 0.595119	 0.583333 
Pt140	 0.749535	 0.675613	 0.500000 
Pt141	 0.669041	 0.654045	 0.583333 
Pt142	 0.647473	 0.734539	 0.500000 
Pt143	 0.727966	 0.756107	 0.583333 
Pt144	 0.706398	 0.836601	 0.500000 
Pt145	 0.625904	 0.815033	 0.583333 
Pt146	 0.604336	 0.895526	 0.500000 
Pt147	 0.894733	 0.455700	 0.500000 
Pt148	 0.873165	 0.536194	 0.583333 
Pt149	 0.851597	 0.616688	 0.500000 
Pt150	 0.830029	 0.697182	 0.583333 
Pt151	 0.808460	 0.777675	 0.500000 
Pt152	 0.309708	 0.385216	 0.666667 
Pt153	 0.207646	 0.444142	 0.666667 
Pt154	 0.288140	 0.465710	 0.750000 
Pt155	 0.266572	 0.546204	 0.666667 
Pt156	 0.513832	 0.267365	 0.666667 
Pt157	 0.411770	 0.326291	 0.666667 
Pt158	 0.492264	 0.347859	 0.750000 
Pt159	 0.470696	 0.428353	 0.666667 
Pt160	 0.390202	 0.406784	 0.750000 
Pt161	 0.368634	 0.487278	 0.666667 
Pt162	 0.449128	 0.508846	 0.750000 
Pt163	 0.427559	 0.589340	 0.666667 
Pt164	 0.347066	 0.567772	 0.750000 
Pt165	 0.325497	 0.648266	 0.666667 
Pt166	 0.405991	 0.669834	 0.750000 
Pt167	 0.384423	 0.750328	 0.666667 
Pt168	 0.615895	 0.208439	 0.666667 
Pt169	 0.674820	 0.310501	 0.666667 
Pt170	 0.594326	 0.288933	 0.750000 
Pt171	 0.572758	 0.369427	 0.666667 
Pt172	 0.653252	 0.390995	 0.750000 
Pt173	 0.631684	 0.471489	 0.666667 
Pt174	 0.551190	 0.449921	 0.750000 
Pt175	 0.529622	 0.530415	 0.666667 
Pt176	 0.610115	 0.551983	 0.750000 
Pt177	 0.588547	 0.632477	 0.666667 
Pt178	 0.508053	 0.610908	 0.750000 
Pt179	 0.486485	 0.691402	 0.666667 
Pt180	 0.566979	 0.712971	 0.750000 
Pt181	 0.545411	 0.793464	 0.666667 
Pt182	 0.464917	 0.771896	 0.750000 
Pt183	 0.443348	 0.852390	 0.666667 
Pt184	 0.733746	 0.412564	 0.666667 
Pt185	 0.792671	 0.514626	 0.666667 
Pt186	 0.712177	 0.493057	 0.750000 
Pt187	 0.690609	 0.573551	 0.666667 
Pt188	 0.771103	 0.595119	 0.750000 
Pt189	 0.749535	 0.675613	 0.666667 
Pt190	 0.669041	 0.654045	 0.750000 
Pt191	 0.647473	 0.734539	 0.666667 
Pt192	 0.851597	 0.616688	 0.666667 
Pt193	 0.470696	 0.428353	 0.833333 
Pt194	 0.368634	 0.487278	 0.833333 
Pt195	 0.427559	 0.589340	 0.833333 
Pt196	 0.572758	 0.369427	 0.833333 
Pt197	 0.631684	 0.471489	 0.833333 
Pt198	 0.529622	 0.530415	 0.833333 
Pt199	 0.588547	 0.632477	 0.833333 
Pt200	 0.486485	 0.691402	 0.833333 
Pt201	 0.690609	 0.573551	 0.833333 
#                 ---end-of-data-block---
