data_C:\Users\admin\Documents\atomsegmentation_bupt_fullsuite_3\misc\09474.cif
_cell_length_a               23.739600
_cell_length_b               23.739600
_cell_length_c               5.449400
_cell_angle_alpha          90.000000
_cell_angle_beta           90.000000
_cell_angle_gamma          90.000000
_symmetry_cell_setting          Triclinic
_symmetry_space_group_name_H-M 'P 1' 
loop_
_atom_site_label
_atom_site_fract_x
_atom_site_fract_y
_atom_site_fract_z
Sc1	 0.240035	 0.122695	 0.000000 
Sc2	 0.179732	 0.227143	 0.500000 
Sc3	 0.384373	 0.206028	 0.000000 
Sc4	 0.324070	 0.310476	 0.500000 
Dy5	 0.365187	 0.072593	 0.017200 
Dy6	 0.463863	 0.235015	 0.517200 
Dy7	 0.403559	 0.339463	 0.982800 
Dy8	 0.304883	 0.177041	 0.482800 
Sc9	 0.119429	 0.331591	 0.000000 
Sc10	 0.059126	 0.436039	 0.500000 
Sc11	 0.263767	 0.414924	 0.000000 
Sc12	 0.203463	 0.519373	 0.500000 
Dy13	 0.244580	 0.281490	 0.017200 
Dy14	 0.343256	 0.443911	 0.517200 
Dy15	 0.282953	 0.548359	 0.982800 
Dy16	 0.184277	 0.385938	 0.482800 
Sc17	 0.300339	 0.018246	 0.500000 
Sc18	 0.143160	 0.623821	 0.000000 
Sc19	 0.444676	 0.101580	 0.500000 
Dy20	 0.123974	 0.490386	 0.017200 
Dy21	 0.222650	 0.652808	 0.517200 
Dy22	 0.524166	 0.130566	 0.982800 
Dy23	 0.063670	 0.594834	 0.482800 
Sc24	 0.528711	 0.289361	 0.000000 
Sc25	 0.468407	 0.393809	 0.500000 
Sc26	 0.673048	 0.372695	 0.000000 
Sc27	 0.612745	 0.477143	 0.500000 
Dy28	 0.653862	 0.239260	 0.017200 
Dy29	 0.752538	 0.401681	 0.517200 
Dy30	 0.692235	 0.506129	 0.982800 
Dy31	 0.593559	 0.343708	 0.482800 
Sc32	 0.408104	 0.498258	 0.000000 
Sc33	 0.347801	 0.602706	 0.500000 
Sc34	 0.552442	 0.581591	 0.000000 
Sc35	 0.492138	 0.686039	 0.500000 
Dy36	 0.533255	 0.448156	 0.017200 
Dy37	 0.631931	 0.610578	 0.517200 
Dy38	 0.571628	 0.715026	 0.982800 
Dy39	 0.472952	 0.552604	 0.482800 
Sc40	 0.287498	 0.707154	 0.000000 
Sc41	 0.589014	 0.184913	 0.500000 
Sc42	 0.431835	 0.790488	 0.000000 
Sc43	 0.733351	 0.268246	 0.500000 
Dy44	 0.412649	 0.657053	 0.017200 
Dy45	 0.511325	 0.819474	 0.517200 
Dy46	 0.812841	 0.297233	 0.982800 
Dy47	 0.352346	 0.761501	 0.482800 
Sc48	 0.817386	 0.456028	 0.000000 
Sc49	 0.757082	 0.560476	 0.500000 
Sc50	 0.961723	 0.539361	 0.000000 
Sc51	 0.901420	 0.643809	 0.500000 
Dy52	 0.942537	 0.405926	 0.017200 
Dy53	 0.175187	 0.068348	 0.517200 
Dy54	 0.114884	 0.172796	 0.982800 
Dy55	 0.882234	 0.510375	 0.482800 
Sc56	 0.696779	 0.664924	 0.000000 
Sc57	 0.636476	 0.769373	 0.500000 
Sc58	 0.841117	 0.748258	 0.000000 
Sc59	 0.780814	 0.852706	 0.500000 
Dy60	 0.821930	 0.614823	 0.017200 
Dy61	 0.054581	 0.277244	 0.517200 
Dy62	 0.761627	 0.719271	 0.482800 
Sc63	 0.576173	 0.873821	 0.000000 
Sc64	 0.877689	 0.351580	 0.500000 
Sc65	 0.720510	 0.957154	 0.000000 
Dy66	 0.701324	 0.823719	 0.017200 
Dy67	 0.641021	 0.928168	 0.482800 
#                 ---end-of-data-block---
