data_C:\Users\admin\Documents\atomsegmentation_bupt_fullsuite_3\misc\09487.cif
_cell_length_a               23.739600
_cell_length_b               23.739600
_cell_length_c               5.449400
_cell_angle_alpha          90.000000
_cell_angle_beta           90.000000
_cell_angle_gamma          90.000000
_symmetry_cell_setting          Triclinic
_symmetry_space_group_name_H-M 'P 1' 
loop_
_atom_site_label
_atom_site_fract_x
_atom_site_fract_y
_atom_site_fract_z
Sc1	 0.289726	 0.051693	 0.500000 
Sc2	 0.477508	 0.135727	 0.000000 
Sc3	 0.373060	 0.196031	 0.500000 
Dy4	 0.527610	 0.010576	 0.017200 
Dy5	 0.531855	 0.200575	 0.517200 
Dy6	 0.427406	 0.260879	 0.982800 
Dy7	 0.423161	 0.070879	 0.482800 
Sc8	 0.185278	 0.111996	 0.000000 
Sc9	 0.080830	 0.172299	 0.500000 
Sc10	 0.268611	 0.256334	 0.000000 
Sc11	 0.164163	 0.316637	 0.500000 
Dy12	 0.318713	 0.131183	 0.017200 
Dy13	 0.322958	 0.321182	 0.517200 
Dy14	 0.218510	 0.381485	 0.982800 
Dy15	 0.214265	 0.191486	 0.482800 
Sc16	 0.059715	 0.376940	 0.000000 
Sc17	 0.581956	 0.075424	 0.500000 
Dy18	 0.109816	 0.251789	 0.017200 
Dy19	 0.114062	 0.441788	 0.517200 
Dy20	 0.636303	 0.140272	 0.982800 
Dy21	 0.005368	 0.312092	 0.482800 
Sc22	 0.560841	 0.280065	 0.000000 
Sc23	 0.456393	 0.340368	 0.500000 
Sc24	 0.644175	 0.424402	 0.000000 
Sc25	 0.539726	 0.484706	 0.500000 
Dy26	 0.694276	 0.299251	 0.017200 
Dy27	 0.698521	 0.489250	 0.517200 
Dy28	 0.594073	 0.549554	 0.982800 
Dy29	 0.589828	 0.359554	 0.482800 
Sc30	 0.351945	 0.400671	 0.000000 
Sc31	 0.247496	 0.460975	 0.500000 
Sc32	 0.435278	 0.545009	 0.000000 
Sc33	 0.330830	 0.605312	 0.500000 
Dy34	 0.485380	 0.419858	 0.017200 
Dy35	 0.489625	 0.609857	 0.517200 
Dy36	 0.385177	 0.670160	 0.982800 
Dy37	 0.380931	 0.480161	 0.482800 
Sc38	 0.143048	 0.521278	 0.000000 
Sc39	 0.665290	 0.219762	 0.500000 
Sc40	 0.226382	 0.665615	 0.000000 
Sc41	 0.748623	 0.364099	 0.500000 
Dy42	 0.276483	 0.540464	 0.017200 
Dy43	 0.280728	 0.730463	 0.517200 
Dy44	 0.802970	 0.428947	 0.982800 
Dy45	 0.172035	 0.600767	 0.482800 
Sc46	 0.727508	 0.568740	 0.000000 
Sc47	 0.623060	 0.629043	 0.500000 
Sc48	 0.810841	 0.713078	 0.000000 
Sc49	 0.706393	 0.773381	 0.500000 
Dy50	 0.860943	 0.587926	 0.017200 
Dy51	 0.865188	 0.777926	 0.517200 
Dy52	 0.760740	 0.838229	 0.982800 
Dy53	 0.756495	 0.648230	 0.482800 
Sc54	 0.518611	 0.689346	 0.000000 
Sc55	 0.414163	 0.749650	 0.500000 
Sc56	 0.601945	 0.833684	 0.000000 
Sc57	 0.497496	 0.893987	 0.500000 
Dy58	 0.652046	 0.708533	 0.017200 
Dy59	 0.656291	 0.898532	 0.517200 
Dy60	 0.551843	 0.958835	 0.982800 
Dy61	 0.547598	 0.768836	 0.482800 
Sc62	 0.309715	 0.809953	 0.000000 
Sc63	 0.831956	 0.508437	 0.500000 
Sc64	 0.393048	 0.954291	 0.000000 
Sc65	 0.915290	 0.652774	 0.500000 
Dy66	 0.443150	 0.829139	 0.017200 
Dy67	 0.969636	 0.717622	 0.982800 
Dy68	 0.338702	 0.889443	 0.482800 
#                 ---end-of-data-block---
