data_Single Layer of MoS2nx 6 ny 4 nz 1
_cell_length_a               21.615994
_cell_length_b               21.615994
_cell_length_c               3.080000
_cell_angle_alpha          90.000000
_cell_angle_beta           90.000000
_cell_angle_gamma          90.000000
_symmetry_cell_setting          Triclinic
_symmetry_space_group_name_H-M 'P 1' 
loop_
_atom_site_label
_atom_site_fract_x
_atom_site_fract_y
_atom_site_fract_z
Mo1	 0.545925	 0.074805	 0.500000 
Mo2	 0.690262	 0.074805	 0.500000 
S3	 0.618093	 0.116472	 1.000000 
S4	 0.618093	 0.116472	 0.000000 
S5	 0.473756	 0.116472	 1.000000 
S6	 0.473756	 0.116472	 0.000000 
Mo7	 0.329418	 0.199805	 0.500000 
Mo8	 0.473756	 0.199805	 0.500000 
S9	 0.401587	 0.241472	 1.000000 
S10	 0.401587	 0.241472	 0.000000 
S11	 0.257250	 0.241472	 1.000000 
S12	 0.257250	 0.241472	 0.000000 
Mo13	 0.112912	 0.324805	 0.500000 
Mo14	 0.257250	 0.324805	 0.500000 
S15	 0.185081	 0.366472	 1.000000 
S16	 0.185081	 0.366472	 0.000000 
S17	 0.040743	 0.366472	 1.000000 
S18	 0.040743	 0.366472	 0.000000 
Mo19	 0.040743	 0.449805	 0.500000 
S20	 0.762431	 0.116472	 1.000000 
S21	 0.762431	 0.116472	 0.000000 
Mo22	 0.618093	 0.199805	 0.500000 
Mo23	 0.762431	 0.199805	 0.500000 
S24	 0.690262	 0.241472	 1.000000 
S25	 0.690262	 0.241472	 0.000000 
S26	 0.545925	 0.241472	 1.000000 
S27	 0.545925	 0.241472	 0.000000 
Mo28	 0.401587	 0.324805	 0.500000 
Mo29	 0.545925	 0.324805	 0.500000 
S30	 0.473756	 0.366472	 1.000000 
S31	 0.473756	 0.366472	 0.000000 
S32	 0.329418	 0.366472	 1.000000 
S33	 0.329418	 0.366472	 0.000000 
Mo34	 0.185081	 0.449805	 0.500000 
Mo35	 0.329418	 0.449805	 0.500000 
S36	 0.257250	 0.491472	 1.000000 
S37	 0.257250	 0.491472	 0.000000 
S38	 0.112912	 0.491472	 1.000000 
S39	 0.112912	 0.491472	 0.000000 
Mo40	 0.112912	 0.574805	 0.500000 
S41	 0.040743	 0.616472	 1.000000 
S42	 0.040743	 0.616472	 0.000000 
S43	 0.834600	 0.241472	 1.000000 
S44	 0.834600	 0.241472	 0.000000 
Mo45	 0.690262	 0.324805	 0.500000 
Mo46	 0.834600	 0.324805	 0.500000 
S47	 0.762431	 0.366472	 1.000000 
S48	 0.762431	 0.366472	 0.000000 
S49	 0.618093	 0.366472	 1.000000 
S50	 0.618093	 0.366472	 0.000000 
Mo51	 0.473756	 0.449805	 0.500000 
Mo52	 0.618093	 0.449805	 0.500000 
S53	 0.545925	 0.491472	 1.000000 
S54	 0.545925	 0.491472	 0.000000 
S55	 0.401587	 0.491472	 1.000000 
S56	 0.401587	 0.491472	 0.000000 
Mo57	 0.257250	 0.574805	 0.500000 
Mo58	 0.401587	 0.574805	 0.500000 
S59	 0.329418	 0.616472	 1.000000 
S60	 0.329418	 0.616472	 0.000000 
S61	 0.185081	 0.616472	 1.000000 
S62	 0.185081	 0.616472	 0.000000 
Mo63	 0.040743	 0.699805	 0.500000 
Mo64	 0.185081	 0.699805	 0.500000 
S65	 0.112912	 0.741472	 1.000000 
S66	 0.112912	 0.741472	 0.000000 
S67	 0.906769	 0.366472	 1.000000 
S68	 0.906769	 0.366472	 0.000000 
Mo69	 0.762431	 0.449805	 0.500000 
Mo70	 0.906769	 0.449805	 0.500000 
S71	 0.834600	 0.491472	 1.000000 
S72	 0.834600	 0.491472	 0.000000 
S73	 0.690262	 0.491472	 1.000000 
S74	 0.690262	 0.491472	 0.000000 
Mo75	 0.545925	 0.574805	 0.500000 
Mo76	 0.690262	 0.574805	 0.500000 
S77	 0.618093	 0.616472	 1.000000 
S78	 0.618093	 0.616472	 0.000000 
S79	 0.473756	 0.616472	 1.000000 
S80	 0.473756	 0.616472	 0.000000 
Mo81	 0.329418	 0.699805	 0.500000 
Mo82	 0.473756	 0.699805	 0.500000 
S83	 0.401587	 0.741472	 1.000000 
S84	 0.401587	 0.741472	 0.000000 
S85	 0.257250	 0.741472	 1.000000 
S86	 0.257250	 0.741472	 0.000000 
Mo87	 0.112912	 0.824805	 0.500000 
Mo88	 0.257250	 0.824805	 0.500000 
S89	 0.185081	 0.866472	 1.000000 
S90	 0.185081	 0.866472	 0.000000 
S91	 0.978937	 0.491472	 1.000000 
S92	 0.978937	 0.491472	 0.000000 
Mo93	 0.834600	 0.574805	 0.500000 
Mo94	 0.978937	 0.574805	 0.500000 
S95	 0.906769	 0.616472	 1.000000 
S96	 0.906769	 0.616472	 0.000000 
S97	 0.762431	 0.616472	 1.000000 
S98	 0.762431	 0.616472	 0.000000 
Mo99	 0.618093	 0.699805	 0.500000 
Mo100	 0.762431	 0.699805	 0.500000 
S101	 0.690262	 0.741472	 1.000000 
S102	 0.690262	 0.741472	 0.000000 
S103	 0.545925	 0.741472	 1.000000 
S104	 0.545925	 0.741472	 0.000000 
Mo105	 0.401587	 0.824805	 0.500000 
Mo106	 0.545925	 0.824805	 0.500000 
S107	 0.473756	 0.866472	 1.000000 
S108	 0.473756	 0.866472	 0.000000 
S109	 0.329418	 0.866472	 1.000000 
S110	 0.329418	 0.866472	 0.000000 
Mo111	 0.185081	 0.949805	 0.500000 
Mo112	 0.329418	 0.949805	 0.500000 
S113	 0.257250	 0.991472	 1.000000 
S114	 0.257250	 0.991472	 0.000000 
Mo115	 0.906769	 0.699805	 0.500000 
S116	 0.834600	 0.741472	 1.000000 
S117	 0.834600	 0.741472	 0.000000 
Mo118	 0.690262	 0.824805	 0.500000 
Mo119	 0.401587	 0.074805	 0.500000 
S120	 0.329418	 0.116472	 1.000000 
S121	 0.329418	 0.116472	 0.000000 
S122	 0.618093	 0.866472	 1.000000 
S123	 0.618093	 0.866472	 0.000000 
Mo124	 0.473756	 0.949805	 0.500000 
Mo125	 0.185081	 0.199805	 0.500000 
S126	 0.112912	 0.241472	 1.000000 
S127	 0.112912	 0.241472	 0.000000 
S128	 0.401587	 0.991472	 1.000000 
S129	 0.401587	 0.991472	 0.000000 
#                 ---end-of-data-block---
