data_Pt structure along [001] nx 5 ny 5 nz 1
_cell_length_a               20.900000
_cell_length_b               20.900000
_cell_length_c               4.180000
_cell_angle_alpha          90.000000
_cell_angle_beta           90.000000
_cell_angle_gamma          90.000000
_symmetry_cell_setting          Triclinic
_symmetry_space_group_name_H-M 'P 1' 
loop_
_atom_site_label
_atom_site_fract_x
_atom_site_fract_y
_atom_site_fract_z
Co1	 0.139980	 0.067591	 0.000000 
Co2	 0.236572	 0.093473	 0.500000 
Co3	 0.210690	 0.190066	 0.000000 
Co4	 0.114098	 0.164184	 0.500000 
Co5	 0.088216	 0.260777	 0.000000 
Co6	 0.184808	 0.286659	 0.500000 
Co7	 0.158926	 0.383251	 0.000000 
Co8	 0.062334	 0.357369	 0.500000 
Co9	 0.036452	 0.453962	 0.000000 
Co10	 0.133045	 0.479844	 0.500000 
Co11	 0.107163	 0.576436	 0.000000 
Co12	 0.010570	 0.550554	 0.500000 
Co13	 0.081281	 0.673029	 0.500000 
Co14	 0.055399	 0.769621	 0.000000 
Co15	 0.029517	 0.866214	 0.500000 
Co16	 0.333165	 0.119355	 0.000000 
Co17	 0.429757	 0.145237	 0.500000 
Co18	 0.403875	 0.241830	 0.000000 
Co19	 0.307283	 0.215948	 0.500000 
Co20	 0.281401	 0.312540	 0.000000 
Co21	 0.377994	 0.338422	 0.500000 
Co22	 0.352112	 0.435015	 0.000000 
Co23	 0.255519	 0.409133	 0.500000 
Co24	 0.229637	 0.505726	 0.000000 
Co25	 0.326230	 0.531607	 0.500000 
Co26	 0.300348	 0.628200	 0.000000 
Co27	 0.203755	 0.602318	 0.500000 
Co28	 0.177873	 0.698911	 0.000000 
Co29	 0.274466	 0.724793	 0.500000 
Co30	 0.248584	 0.821385	 0.000000 
Co31	 0.151991	 0.795503	 0.500000 
Co32	 0.126110	 0.892096	 0.000000 
Co33	 0.222702	 0.917978	 0.500000 
Co34	 0.455639	 0.048645	 0.000000 
Co35	 0.359047	 0.022763	 0.500000 
Co36	 0.526350	 0.171119	 0.000000 
Co37	 0.622943	 0.197001	 0.500000 
Co38	 0.597061	 0.293594	 0.000000 
Co39	 0.500468	 0.267712	 0.500000 
Co40	 0.474586	 0.364304	 0.000000 
Co41	 0.571179	 0.390186	 0.500000 
Co42	 0.545297	 0.486779	 0.000000 
Co43	 0.448704	 0.460897	 0.500000 
Co44	 0.422822	 0.557489	 0.000000 
Co45	 0.519415	 0.583371	 0.500000 
Co46	 0.493533	 0.679964	 0.000000 
Co47	 0.396940	 0.654082	 0.500000 
Co48	 0.371059	 0.750675	 0.000000 
Co49	 0.467651	 0.776556	 0.500000 
Co50	 0.441769	 0.873149	 0.000000 
Co51	 0.345177	 0.847267	 0.500000 
Co52	 0.319295	 0.943860	 0.000000 
Co53	 0.415887	 0.969742	 0.500000 
Co54	 0.648824	 0.100408	 0.000000 
Co55	 0.552232	 0.074526	 0.500000 
Co56	 0.719535	 0.222883	 0.000000 
Co57	 0.816128	 0.248765	 0.500000 
Co58	 0.790246	 0.345357	 0.000000 
Co59	 0.693653	 0.319475	 0.500000 
Co60	 0.667771	 0.416068	 0.000000 
Co61	 0.764364	 0.441950	 0.500000 
Co62	 0.738482	 0.538543	 0.000000 
Co63	 0.641889	 0.512661	 0.500000 
Co64	 0.616007	 0.609253	 0.000000 
Co65	 0.712600	 0.635135	 0.500000 
Co66	 0.686718	 0.731728	 0.000000 
Co67	 0.590126	 0.705846	 0.500000 
Co68	 0.564244	 0.802438	 0.000000 
Co69	 0.660836	 0.828320	 0.500000 
Co70	 0.634954	 0.924913	 0.000000 
Co71	 0.538362	 0.899031	 0.500000 
Co72	 0.512480	 0.995624	 0.000000 
Co73	 0.842010	 0.152172	 0.000000 
Co74	 0.745417	 0.126290	 0.500000 
Co75	 0.912720	 0.274647	 0.000000 
Co76	 0.983431	 0.397121	 0.000000 
Co77	 0.886838	 0.371239	 0.500000 
Co78	 0.860956	 0.467832	 0.000000 
Co79	 0.957549	 0.493714	 0.500000 
Co80	 0.931667	 0.590306	 0.000000 
Co81	 0.835075	 0.564424	 0.500000 
Co82	 0.809193	 0.661017	 0.000000 
Co83	 0.905785	 0.686899	 0.500000 
Co84	 0.879903	 0.783491	 0.000000 
Co85	 0.783311	 0.757610	 0.500000 
Co86	 0.757429	 0.854202	 0.000000 
Co87	 0.854021	 0.880084	 0.500000 
Co88	 0.828140	 0.976677	 0.000000 
Co89	 0.731547	 0.950795	 0.500000 
Co90	 0.938602	 0.178054	 0.500000 
#                 ---end-of-data-block---
