data_STO [001]5x5x1
_cell_length_a               19.525000
_cell_length_b               19.525000
_cell_length_c               3.905000
_cell_angle_alpha          90.000000
_cell_angle_beta           90.000000
_cell_angle_gamma          90.000000
_symmetry_cell_setting          Triclinic
_symmetry_space_group_name_H-M 'P 1' 
loop_
_atom_site_label
_atom_site_fract_x
_atom_site_fract_y
_atom_site_fract_z
Sr1	 0.158838	 0.005485	 0.000000 
Ti2	 0.229548	 0.127960	 0.500000 
Sr3	 0.107074	 0.198670	 0.000000 
Ti4	 0.177785	 0.321145	 0.500000 
Sr5	 0.055310	 0.391856	 0.000000 
Ti6	 0.126021	 0.514330	 0.500000 
Sr7	 0.003546	 0.585041	 0.000000 
Ti8	 0.074257	 0.707515	 0.500000 
Sr9	 0.352023	 0.057249	 0.000000 
Ti10	 0.422734	 0.179724	 0.500000 
Sr11	 0.300259	 0.250434	 0.000000 
Ti12	 0.370970	 0.372909	 0.500000 
Sr13	 0.248495	 0.443619	 0.000000 
Ti14	 0.319206	 0.566094	 0.500000 
Sr15	 0.196731	 0.636805	 0.000000 
Ti16	 0.267442	 0.759279	 0.500000 
Sr17	 0.144968	 0.829990	 0.000000 
Sr18	 0.545208	 0.109013	 0.000000 
Ti19	 0.615919	 0.231487	 0.500000 
Sr20	 0.493444	 0.302198	 0.000000 
Ti21	 0.564155	 0.424672	 0.500000 
Sr22	 0.441680	 0.495383	 0.000000 
Ti23	 0.512391	 0.617858	 0.500000 
Sr24	 0.389917	 0.688568	 0.000000 
Ti25	 0.460627	 0.811043	 0.500000 
Sr26	 0.338153	 0.881754	 0.000000 
Ti27	 0.667683	 0.038302	 0.500000 
Sr28	 0.738393	 0.160777	 0.000000 
Ti29	 0.809104	 0.283251	 0.500000 
Sr30	 0.686629	 0.353962	 0.000000 
Ti31	 0.757340	 0.476436	 0.500000 
Sr32	 0.634866	 0.547147	 0.000000 
Ti33	 0.705576	 0.669621	 0.500000 
Sr34	 0.583102	 0.740332	 0.000000 
Ti35	 0.653812	 0.862807	 0.500000 
Sr36	 0.531338	 0.933517	 0.000000 
Ti37	 0.860868	 0.090066	 0.500000 
Sr38	 0.931578	 0.212540	 0.000000 
Sr39	 0.879815	 0.405726	 0.000000 
Ti40	 0.950525	 0.528200	 0.500000 
Sr41	 0.828051	 0.598911	 0.000000 
Ti42	 0.898761	 0.721385	 0.500000 
Sr43	 0.776287	 0.792096	 0.000000 
Ti44	 0.846998	 0.914570	 0.500000 
Sr45	 0.724523	 0.985281	 0.000000 
#                 ---end-of-data-block---
