data_STO [001]5x5x1
_cell_length_a               19.525000
_cell_length_b               19.525000
_cell_length_c               3.905000
_cell_angle_alpha          90.000000
_cell_angle_beta           90.000000
_cell_angle_gamma          90.000000
_symmetry_cell_setting          Triclinic
_symmetry_space_group_name_H-M 'P 1' 
loop_
_atom_site_label
_atom_site_fract_x
_atom_site_fract_y
_atom_site_fract_z
Sr1	 0.785378	 0.002230	 0.000000 
Ti2	 0.714667	 0.124705	 0.500000 
Sr3	 0.592193	 0.053994	 0.000000 
Ti4	 0.521482	 0.176469	 0.500000 
Sr5	 0.399008	 0.105758	 0.000000 
Ti6	 0.328297	 0.228233	 0.500000 
Sr7	 0.205822	 0.157522	 0.000000 
Ti8	 0.135112	 0.279996	 0.500000 
Sr9	 0.012637	 0.209286	 0.000000 
Sr10	 0.837142	 0.195416	 0.000000 
Ti11	 0.766431	 0.317890	 0.500000 
Sr12	 0.643956	 0.247179	 0.000000 
Ti13	 0.573246	 0.369654	 0.500000 
Sr14	 0.450771	 0.298943	 0.000000 
Ti15	 0.380061	 0.421418	 0.500000 
Sr16	 0.257586	 0.350707	 0.000000 
Ti17	 0.186875	 0.473181	 0.500000 
Sr18	 0.064401	 0.402471	 0.000000 
Sr19	 0.888905	 0.388601	 0.000000 
Ti20	 0.818195	 0.511075	 0.500000 
Sr21	 0.695720	 0.440365	 0.000000 
Ti22	 0.625010	 0.562839	 0.500000 
Sr23	 0.502535	 0.492128	 0.000000 
Ti24	 0.431824	 0.614603	 0.500000 
Sr25	 0.309350	 0.543892	 0.000000 
Ti26	 0.238639	 0.666367	 0.500000 
Sr27	 0.116165	 0.595656	 0.000000 
Ti28	 0.045454	 0.718130	 0.500000 
Sr29	 0.940669	 0.581786	 0.000000 
Ti30	 0.869959	 0.704260	 0.500000 
Sr31	 0.747484	 0.633550	 0.000000 
Ti32	 0.676773	 0.756024	 0.500000 
Sr33	 0.554299	 0.685314	 0.000000 
Ti34	 0.483588	 0.807788	 0.500000 
Sr35	 0.361114	 0.737077	 0.000000 
Ti36	 0.290403	 0.859552	 0.500000 
Sr37	 0.167929	 0.788841	 0.000000 
Ti38	 0.097218	 0.911316	 0.500000 
Sr39	 0.992433	 0.774971	 0.000000 
Ti40	 0.921722	 0.897446	 0.500000 
Sr41	 0.799248	 0.826735	 0.000000 
Ti42	 0.728537	 0.949209	 0.500000 
Sr43	 0.606063	 0.878499	 0.000000 
Sr44	 0.412878	 0.930263	 0.000000 
Sr45	 0.219692	 0.982026	 0.000000 
#                 ---end-of-data-block---
