data_STO [001]5x5x1
_cell_length_a               19.525000
_cell_length_b               19.525000
_cell_length_c               3.905000
_cell_angle_alpha          90.000000
_cell_angle_beta           90.000000
_cell_angle_gamma          90.000000
_symmetry_cell_setting          Triclinic
_symmetry_space_group_name_H-M 'P 1' 
loop_
_atom_site_label
_atom_site_fract_x
_atom_site_fract_y
_atom_site_fract_z
Ti1	 0.643837	 0.072682	 0.500000 
Sr2	 0.521363	 0.001971	 0.000000 
Ti3	 0.450652	 0.124446	 0.500000 
Sr4	 0.328178	 0.053735	 0.000000 
Ti5	 0.257467	 0.176209	 0.500000 
Sr6	 0.134993	 0.105499	 0.000000 
Ti7	 0.064282	 0.227973	 0.500000 
Ti8	 0.837023	 0.020918	 0.500000 
Sr9	 0.766312	 0.143393	 0.000000 
Ti10	 0.695601	 0.265867	 0.500000 
Sr11	 0.573127	 0.195156	 0.000000 
Ti12	 0.502416	 0.317631	 0.500000 
Sr13	 0.379942	 0.246920	 0.000000 
Ti14	 0.309231	 0.369395	 0.500000 
Sr15	 0.186756	 0.298684	 0.000000 
Ti16	 0.116046	 0.421158	 0.500000 
Ti17	 0.888786	 0.214103	 0.500000 
Sr18	 0.818076	 0.336578	 0.000000 
Ti19	 0.747365	 0.459052	 0.500000 
Sr20	 0.624891	 0.388341	 0.000000 
Ti21	 0.554180	 0.510816	 0.500000 
Sr22	 0.431705	 0.440105	 0.000000 
Ti23	 0.360995	 0.562580	 0.500000 
Sr24	 0.238520	 0.491869	 0.000000 
Ti25	 0.167810	 0.614344	 0.500000 
Sr26	 0.045335	 0.543633	 0.000000 
Ti27	 0.940550	 0.407288	 0.500000 
Sr28	 0.869840	 0.529763	 0.000000 
Ti29	 0.799129	 0.652237	 0.500000 
Sr30	 0.676654	 0.581527	 0.000000 
Ti31	 0.605944	 0.704001	 0.500000 
Sr32	 0.483469	 0.633290	 0.000000 
Ti33	 0.412759	 0.755765	 0.500000 
Sr34	 0.290284	 0.685054	 0.000000 
Ti35	 0.219573	 0.807529	 0.500000 
Sr36	 0.097099	 0.736818	 0.000000 
Ti37	 0.992314	 0.600474	 0.500000 
Sr38	 0.921603	 0.722948	 0.000000 
Ti39	 0.850893	 0.845422	 0.500000 
Sr40	 0.728418	 0.774712	 0.000000 
Ti41	 0.657707	 0.897186	 0.500000 
Sr42	 0.535233	 0.826476	 0.000000 
Ti43	 0.464522	 0.948950	 0.500000 
Sr44	 0.342048	 0.878239	 0.000000 
Sr45	 0.148863	 0.930003	 0.000000 
#                 ---end-of-data-block---
