data_Pt structure along [001] nx 4 ny 5 nz 1
_cell_length_a               22.090016
_cell_length_b               22.090016
_cell_length_c               5.543717
_cell_angle_alpha          90.000000
_cell_angle_beta           90.000000
_cell_angle_gamma          90.000000
_symmetry_cell_setting          Triclinic
_symmetry_space_group_name_H-M 'P 1' 
loop_
_atom_site_label
_atom_site_fract_x
_atom_site_fract_y
_atom_site_fract_z
Ti1	 0.546483	 0.060691	 0.500000 
Ti2	 0.333094	 0.097302	 0.000000 
Sr3	 0.483983	 0.123191	 0.000000 
Ti4	 0.421483	 0.185691	 0.500000 
Sr5	 0.395594	 0.034802	 0.500000 
Ti6	 0.208094	 0.222302	 0.000000 
Sr7	 0.358983	 0.248191	 0.000000 
Ti8	 0.296483	 0.310691	 0.500000 
Sr9	 0.270594	 0.159802	 0.500000 
Ti10	 0.083094	 0.347302	 0.000000 
Sr11	 0.233983	 0.373191	 0.000000 
Ti12	 0.171483	 0.435691	 0.500000 
Sr13	 0.145594	 0.284802	 0.500000 
Sr14	 0.108983	 0.498191	 0.000000 
Ti15	 0.046483	 0.560691	 0.500000 
Sr16	 0.020594	 0.409802	 0.500000 
Ti17	 0.634871	 0.149079	 0.000000 
Sr18	 0.785759	 0.174967	 0.000000 
Ti19	 0.723259	 0.237467	 0.500000 
Sr20	 0.697371	 0.086579	 0.500000 
Ti21	 0.509871	 0.274079	 0.000000 
Sr22	 0.660759	 0.299967	 0.000000 
Ti23	 0.598259	 0.362467	 0.500000 
Sr24	 0.572371	 0.211579	 0.500000 
Ti25	 0.384871	 0.399079	 0.000000 
Sr26	 0.535759	 0.424967	 0.000000 
Ti27	 0.473259	 0.487467	 0.500000 
Sr28	 0.447371	 0.336579	 0.500000 
Ti29	 0.259871	 0.524079	 0.000000 
Sr30	 0.410759	 0.549967	 0.000000 
Ti31	 0.348259	 0.612467	 0.500000 
Sr32	 0.322371	 0.461579	 0.500000 
Ti33	 0.134871	 0.649079	 0.000000 
Sr34	 0.285759	 0.674967	 0.000000 
Ti35	 0.223259	 0.737467	 0.500000 
Sr36	 0.197371	 0.586579	 0.500000 
Ti37	 0.811648	 0.325856	 0.000000 
Sr38	 0.962536	 0.351744	 0.000000 
Ti39	 0.900036	 0.414244	 0.500000 
Sr40	 0.874148	 0.263356	 0.500000 
Ti41	 0.686648	 0.450856	 0.000000 
Sr42	 0.837536	 0.476744	 0.000000 
Ti43	 0.775036	 0.539244	 0.500000 
Sr44	 0.749148	 0.388356	 0.500000 
Ti45	 0.561648	 0.575856	 0.000000 
Sr46	 0.712536	 0.601744	 0.000000 
Ti47	 0.650036	 0.664244	 0.500000 
Sr48	 0.624148	 0.513356	 0.500000 
Ti49	 0.436648	 0.700856	 0.000000 
Sr50	 0.587536	 0.726744	 0.000000 
Ti51	 0.525036	 0.789244	 0.500000 
Sr52	 0.499148	 0.638356	 0.500000 
Ti53	 0.311648	 0.825856	 0.000000 
Sr54	 0.462536	 0.851744	 0.000000 
Ti55	 0.400036	 0.914244	 0.500000 
Sr56	 0.374148	 0.763356	 0.500000 
Ti57	 0.988425	 0.502632	 0.000000 
Ti58	 0.863425	 0.627632	 0.000000 
Ti59	 0.951813	 0.716021	 0.500000 
Sr60	 0.925925	 0.565132	 0.500000 
Ti61	 0.738425	 0.752632	 0.000000 
Sr62	 0.889313	 0.778521	 0.000000 
Ti63	 0.826813	 0.841021	 0.500000 
Sr64	 0.800925	 0.690132	 0.500000 
Ti65	 0.613425	 0.877632	 0.000000 
Sr66	 0.764313	 0.903521	 0.000000 
Ti67	 0.701813	 0.966021	 0.500000 
Sr68	 0.675925	 0.815132	 0.500000 
Sr69	 0.550925	 0.940132	 0.500000 
#                 ---end-of-data-block---
