data_Pt structure along [001] nx 4 ny 5 nz 1
_cell_length_a               22.090016
_cell_length_b               22.090016
_cell_length_c               5.543717
_cell_angle_alpha          90.000000
_cell_angle_beta           90.000000
_cell_angle_gamma          90.000000
_symmetry_cell_setting          Triclinic
_symmetry_space_group_name_H-M 'P 1' 
loop_
_atom_site_label
_atom_site_fract_x
_atom_site_fract_y
_atom_site_fract_z
Sr1	 0.685326	 0.036975	 0.000000 
Ti2	 0.608779	 0.081170	 0.500000 
Ti3	 0.393186	 0.061305	 0.000000 
Sr4	 0.532233	 0.125364	 0.000000 
Ti5	 0.455686	 0.169558	 0.500000 
Sr6	 0.469733	 0.017111	 0.500000 
Ti7	 0.240093	 0.149693	 0.000000 
Sr8	 0.379139	 0.213752	 0.000000 
Ti9	 0.302593	 0.257946	 0.500000 
Sr10	 0.316639	 0.105499	 0.500000 
Ti11	 0.087000	 0.238082	 0.000000 
Sr12	 0.226046	 0.302141	 0.000000 
Ti13	 0.149500	 0.346335	 0.500000 
Sr14	 0.163546	 0.193887	 0.500000 
Sr15	 0.072953	 0.390529	 0.000000 
Sr16	 0.010453	 0.282276	 0.500000 
Ti17	 0.671279	 0.189423	 0.000000 
Sr18	 0.810326	 0.253482	 0.000000 
Ti19	 0.733779	 0.297676	 0.500000 
Sr20	 0.747826	 0.145229	 0.500000 
Ti21	 0.518186	 0.277811	 0.000000 
Sr22	 0.657233	 0.341870	 0.000000 
Ti23	 0.580686	 0.386064	 0.500000 
Sr24	 0.594733	 0.233617	 0.500000 
Ti25	 0.365093	 0.366200	 0.000000 
Sr26	 0.504139	 0.430259	 0.000000 
Ti27	 0.427593	 0.474453	 0.500000 
Sr28	 0.441639	 0.322005	 0.500000 
Ti29	 0.212000	 0.454588	 0.000000 
Sr30	 0.351046	 0.518647	 0.000000 
Ti31	 0.274500	 0.562841	 0.500000 
Sr32	 0.288546	 0.410394	 0.500000 
Ti33	 0.058907	 0.542976	 0.000000 
Sr34	 0.197953	 0.607035	 0.000000 
Ti35	 0.121407	 0.651229	 0.500000 
Sr36	 0.135453	 0.498782	 0.500000 
Ti37	 0.796279	 0.405929	 0.000000 
Sr38	 0.935326	 0.469988	 0.000000 
Ti39	 0.858779	 0.514182	 0.500000 
Sr40	 0.872826	 0.361735	 0.500000 
Ti41	 0.643186	 0.494318	 0.000000 
Sr42	 0.782233	 0.558377	 0.000000 
Ti43	 0.705686	 0.602571	 0.500000 
Sr44	 0.719733	 0.450123	 0.500000 
Ti45	 0.490093	 0.582706	 0.000000 
Sr46	 0.629139	 0.646765	 0.000000 
Ti47	 0.552593	 0.690959	 0.500000 
Sr48	 0.566639	 0.538512	 0.500000 
Ti49	 0.337000	 0.671094	 0.000000 
Sr50	 0.476046	 0.735153	 0.000000 
Ti51	 0.399500	 0.779347	 0.500000 
Sr52	 0.413546	 0.626900	 0.500000 
Ti53	 0.183907	 0.759483	 0.000000 
Sr54	 0.322953	 0.823542	 0.000000 
Ti55	 0.246407	 0.867736	 0.500000 
Sr56	 0.260453	 0.715288	 0.500000 
Ti57	 0.921279	 0.622436	 0.000000 
Ti58	 0.983779	 0.730689	 0.500000 
Sr59	 0.997826	 0.578241	 0.500000 
Ti60	 0.768186	 0.710824	 0.000000 
Sr61	 0.907233	 0.774883	 0.000000 
Ti62	 0.830686	 0.819077	 0.500000 
Sr63	 0.844733	 0.666630	 0.500000 
Ti64	 0.615093	 0.799212	 0.000000 
Sr65	 0.754139	 0.863271	 0.000000 
Ti66	 0.677593	 0.907465	 0.500000 
Sr67	 0.691639	 0.755018	 0.500000 
Ti68	 0.462000	 0.887601	 0.000000 
Sr69	 0.601046	 0.951660	 0.000000 
Ti70	 0.524500	 0.995854	 0.500000 
Sr71	 0.538546	 0.843406	 0.500000 
Ti72	 0.308907	 0.975989	 0.000000 
Sr73	 0.385453	 0.931795	 0.500000 
#                 ---end-of-data-block---
