data_NiO [110] nx 4 ny 1 nz 1
_cell_length_a               20.125200
_cell_length_b               20.125200
_cell_length_c               2.866200
_cell_angle_alpha          90.000000
_cell_angle_beta           90.000000
_cell_angle_gamma          90.000000
_symmetry_cell_setting          Triclinic
_symmetry_space_group_name_H-M 'P 1' 
loop_
_atom_site_label
_atom_site_fract_x
_atom_site_fract_y
_atom_site_fract_z
Mn1	 0.107899	 0.431773	 0.000000 
Mn2	 0.054222	 0.542814	 0.500000 
Mn3	 0.210558	 0.205027	 0.000000 
Mn4	 0.264234	 0.093984	 0.500000 
Mn5	 0.156883	 0.316070	 0.500000 
Mn6	 0.284675	 0.608550	 0.000000 
Mn7	 0.230998	 0.719591	 0.500000 
Mn8	 0.494691	 0.159713	 0.000000 
Mn9	 0.387335	 0.381804	 0.000000 
Mn10	 0.441010	 0.270761	 0.500000 
Mn11	 0.333660	 0.492846	 0.500000 
Mn12	 0.461452	 0.785327	 0.000000 
Mn13	 0.407775	 0.896368	 0.500000 
Mn14	 0.671467	 0.336490	 0.000000 
Mn15	 0.564112	 0.558580	 0.000000 
Mn16	 0.617787	 0.447538	 0.500000 
Mn17	 0.510437	 0.669623	 0.500000 
Mn18	 0.638229	 0.962104	 0.000000 
Mn19	 0.848244	 0.513266	 0.000000 
Mn20	 0.740889	 0.735357	 0.000000 
Mn21	 0.794564	 0.624314	 0.500000 
Mn22	 0.687213	 0.846400	 0.500000 
#                 ---end-of-data-block---
