data_Single Layer of MoS2nx 6 ny 4 nz 1
_cell_length_a               21.615994
_cell_length_b               21.615994
_cell_length_c               3.080000
_cell_angle_alpha          90.000000
_cell_angle_beta           90.000000
_cell_angle_gamma          90.000000
_symmetry_cell_setting          Triclinic
_symmetry_space_group_name_H-M 'P 1' 
loop_
_atom_site_label
_atom_site_fract_x
_atom_site_fract_y
_atom_site_fract_z
S1	 0.488702	 0.091872	 1.000000 
S2	 0.488702	 0.091872	 0.000000 
Mo3	 0.370851	 0.209723	 0.500000 
Mo4	 0.510270	 0.172366	 0.500000 
S5	 0.451345	 0.231292	 1.000000 
S6	 0.451345	 0.231292	 0.000000 
S7	 0.311925	 0.268649	 1.000000 
S8	 0.311925	 0.268649	 0.000000 
Mo9	 0.194074	 0.386500	 0.500000 
Mo10	 0.333494	 0.349143	 0.500000 
S11	 0.274568	 0.408068	 1.000000 
S12	 0.274568	 0.408068	 0.000000 
S13	 0.135149	 0.445426	 1.000000 
S14	 0.135149	 0.445426	 0.000000 
Mo15	 0.017298	 0.563277	 0.500000 
Mo16	 0.156717	 0.525919	 0.500000 
S17	 0.097791	 0.584845	 1.000000 
S18	 0.097791	 0.584845	 0.000000 
Mo19	 0.547628	 0.032947	 0.500000 
S20	 0.628122	 0.054515	 1.000000 
S21	 0.628122	 0.054515	 0.000000 
S22	 0.590764	 0.193934	 1.000000 
S23	 0.590764	 0.193934	 0.000000 
Mo24	 0.472913	 0.311785	 0.500000 
Mo25	 0.612333	 0.274428	 0.500000 
S26	 0.553407	 0.333354	 1.000000 
S27	 0.553407	 0.333354	 0.000000 
S28	 0.413988	 0.370711	 1.000000 
S29	 0.413988	 0.370711	 0.000000 
Mo30	 0.296136	 0.488562	 0.500000 
Mo31	 0.435556	 0.451205	 0.500000 
S32	 0.376630	 0.510130	 1.000000 
S33	 0.376630	 0.510130	 0.000000 
S34	 0.237211	 0.547488	 1.000000 
S35	 0.237211	 0.547488	 0.000000 
Mo36	 0.119360	 0.665339	 0.500000 
Mo37	 0.258779	 0.627982	 0.500000 
S38	 0.199854	 0.686907	 1.000000 
S39	 0.199854	 0.686907	 0.000000 
S40	 0.060434	 0.724264	 1.000000 
S41	 0.060434	 0.724264	 0.000000 
Mo42	 0.649690	 0.135009	 0.500000 
Mo43	 0.789109	 0.097651	 0.500000 
S44	 0.730184	 0.156577	 1.000000 
S45	 0.730184	 0.156577	 0.000000 
S46	 0.692826	 0.295996	 1.000000 
S47	 0.692826	 0.295996	 0.000000 
Mo48	 0.574975	 0.413848	 0.500000 
Mo49	 0.714395	 0.376490	 0.500000 
S50	 0.655469	 0.435416	 1.000000 
S51	 0.655469	 0.435416	 0.000000 
S52	 0.516050	 0.472773	 1.000000 
S53	 0.516050	 0.472773	 0.000000 
Mo54	 0.398198	 0.590624	 0.500000 
Mo55	 0.537618	 0.553267	 0.500000 
S56	 0.478692	 0.612192	 1.000000 
S57	 0.478692	 0.612192	 0.000000 
S58	 0.339273	 0.649550	 1.000000 
S59	 0.339273	 0.649550	 0.000000 
Mo60	 0.221422	 0.767401	 0.500000 
Mo61	 0.360841	 0.730044	 0.500000 
S62	 0.301916	 0.788969	 1.000000 
S63	 0.301916	 0.788969	 0.000000 
S64	 0.162496	 0.826326	 1.000000 
S65	 0.162496	 0.826326	 0.000000 
Mo66	 0.751752	 0.237071	 0.500000 
Mo67	 0.891171	 0.199714	 0.500000 
S68	 0.832246	 0.258639	 1.000000 
S69	 0.832246	 0.258639	 0.000000 
S70	 0.794888	 0.398058	 1.000000 
S71	 0.794888	 0.398058	 0.000000 
Mo72	 0.677037	 0.515910	 0.500000 
Mo73	 0.816457	 0.478552	 0.500000 
S74	 0.757531	 0.537478	 1.000000 
S75	 0.757531	 0.537478	 0.000000 
S76	 0.618112	 0.574835	 1.000000 
S77	 0.618112	 0.574835	 0.000000 
Mo78	 0.500261	 0.692686	 0.500000 
Mo79	 0.639680	 0.655329	 0.500000 
S80	 0.580754	 0.714255	 1.000000 
S81	 0.580754	 0.714255	 0.000000 
S82	 0.441335	 0.751612	 1.000000 
S83	 0.441335	 0.751612	 0.000000 
Mo84	 0.323484	 0.869463	 0.500000 
Mo85	 0.462903	 0.832106	 0.500000 
S86	 0.403978	 0.891031	 1.000000 
S87	 0.403978	 0.891031	 0.000000 
S88	 0.264558	 0.928389	 1.000000 
S89	 0.264558	 0.928389	 0.000000 
Mo90	 0.853814	 0.339133	 0.500000 
Mo91	 0.993233	 0.301776	 0.500000 
S92	 0.934308	 0.360701	 1.000000 
S93	 0.934308	 0.360701	 0.000000 
S94	 0.896950	 0.500121	 1.000000 
S95	 0.896950	 0.500121	 0.000000 
Mo96	 0.779099	 0.617972	 0.500000 
Mo97	 0.918519	 0.580614	 0.500000 
S98	 0.859593	 0.639540	 1.000000 
S99	 0.859593	 0.639540	 0.000000 
S100	 0.720174	 0.676897	 1.000000 
S101	 0.720174	 0.676897	 0.000000 
Mo102	 0.602323	 0.794748	 0.500000 
Mo103	 0.741742	 0.757391	 0.500000 
S104	 0.682816	 0.816317	 1.000000 
S105	 0.682816	 0.816317	 0.000000 
S106	 0.543397	 0.853674	 1.000000 
S107	 0.543397	 0.853674	 0.000000 
Mo108	 0.425546	 0.971525	 0.500000 
Mo109	 0.564965	 0.934168	 0.500000 
S110	 0.506040	 0.993093	 1.000000 
S111	 0.506040	 0.993093	 0.000000 
Mo112	 0.955876	 0.441195	 0.500000 
S113	 0.999013	 0.602183	 1.000000 
S114	 0.999013	 0.602183	 0.000000 
Mo115	 0.881161	 0.720034	 0.500000 
Mo116	 0.408208	 0.070304	 0.500000 
S117	 0.349283	 0.129230	 1.000000 
S118	 0.349283	 0.129230	 0.000000 
S119	 0.822236	 0.778959	 1.000000 
S120	 0.822236	 0.778959	 0.000000 
Mo121	 0.704385	 0.896810	 0.500000 
Mo122	 0.231432	 0.247081	 0.500000 
S123	 0.172506	 0.306006	 1.000000 
S124	 0.172506	 0.306006	 0.000000 
S125	 0.645459	 0.955736	 1.000000 
S126	 0.645459	 0.955736	 0.000000 
Mo127	 0.054655	 0.423857	 0.500000 
#                 ---end-of-data-block---
