data_Single Layer of MoS2nx 6 ny 4 nz 1
_cell_length_a               21.615994
_cell_length_b               21.615994
_cell_length_c               3.080000
_cell_angle_alpha          90.000000
_cell_angle_beta           90.000000
_cell_angle_gamma          90.000000
_symmetry_cell_setting          Triclinic
_symmetry_space_group_name_H-M 'P 1' 
loop_
_atom_site_label
_atom_site_fract_x
_atom_site_fract_y
_atom_site_fract_z
Mo1	 0.415100	 0.020190	 0.500000 
S2	 0.495594	 0.041758	 1.000000 
S3	 0.495594	 0.041758	 0.000000 
S4	 0.356174	 0.079116	 1.000000 
S5	 0.356174	 0.079116	 0.000000 
Mo6	 0.238323	 0.196967	 0.500000 
Mo7	 0.377742	 0.159610	 0.500000 
S8	 0.318817	 0.218535	 1.000000 
S9	 0.318817	 0.218535	 0.000000 
S10	 0.179397	 0.255893	 1.000000 
S11	 0.179397	 0.255893	 0.000000 
Mo12	 0.061546	 0.373744	 0.500000 
Mo13	 0.200966	 0.336386	 0.500000 
S14	 0.142040	 0.395312	 1.000000 
S15	 0.142040	 0.395312	 0.000000 
S16	 0.002621	 0.432669	 1.000000 
S17	 0.002621	 0.432669	 0.000000 
Mo18	 0.024189	 0.513163	 0.500000 
S19	 0.635013	 0.004401	 1.000000 
S20	 0.635013	 0.004401	 0.000000 
Mo21	 0.517162	 0.122252	 0.500000 
Mo22	 0.656581	 0.084895	 0.500000 
S23	 0.597656	 0.143821	 1.000000 
S24	 0.597656	 0.143821	 0.000000 
S25	 0.458236	 0.181178	 1.000000 
S26	 0.458236	 0.181178	 0.000000 
Mo27	 0.340385	 0.299029	 0.500000 
Mo28	 0.479805	 0.261672	 0.500000 
S29	 0.420879	 0.320597	 1.000000 
S30	 0.420879	 0.320597	 0.000000 
S31	 0.281460	 0.357955	 1.000000 
S32	 0.281460	 0.357955	 0.000000 
Mo33	 0.163608	 0.475806	 0.500000 
Mo34	 0.303028	 0.438448	 0.500000 
S35	 0.244102	 0.497374	 1.000000 
S36	 0.244102	 0.497374	 0.000000 
S37	 0.104683	 0.534731	 1.000000 
S38	 0.104683	 0.534731	 0.000000 
Mo39	 0.126251	 0.615225	 0.500000 
S40	 0.067326	 0.674151	 1.000000 
S41	 0.067326	 0.674151	 0.000000 
S42	 0.737075	 0.106463	 1.000000 
S43	 0.737075	 0.106463	 0.000000 
Mo44	 0.619224	 0.224314	 0.500000 
Mo45	 0.758643	 0.186957	 0.500000 
S46	 0.699718	 0.245883	 1.000000 
S47	 0.699718	 0.245883	 0.000000 
S48	 0.560298	 0.283240	 1.000000 
S49	 0.560298	 0.283240	 0.000000 
Mo50	 0.442447	 0.401091	 0.500000 
Mo51	 0.581867	 0.363734	 0.500000 
S52	 0.522941	 0.422659	 1.000000 
S53	 0.522941	 0.422659	 0.000000 
S54	 0.383522	 0.460017	 1.000000 
S55	 0.383522	 0.460017	 0.000000 
Mo56	 0.265670	 0.577868	 0.500000 
Mo57	 0.405090	 0.540510	 0.500000 
S58	 0.346164	 0.599436	 1.000000 
S59	 0.346164	 0.599436	 0.000000 
S60	 0.206745	 0.636793	 1.000000 
S61	 0.206745	 0.636793	 0.000000 
Mo62	 0.088894	 0.754644	 0.500000 
Mo63	 0.228313	 0.717287	 0.500000 
S64	 0.169388	 0.776213	 1.000000 
S65	 0.169388	 0.776213	 0.000000 
S66	 0.839137	 0.208525	 1.000000 
S67	 0.839137	 0.208525	 0.000000 
Mo68	 0.721286	 0.326376	 0.500000 
Mo69	 0.860705	 0.289019	 0.500000 
S70	 0.801780	 0.347945	 1.000000 
S71	 0.801780	 0.347945	 0.000000 
S72	 0.662360	 0.385302	 1.000000 
S73	 0.662360	 0.385302	 0.000000 
Mo74	 0.544509	 0.503153	 0.500000 
Mo75	 0.683929	 0.465796	 0.500000 
S76	 0.625003	 0.524721	 1.000000 
S77	 0.625003	 0.524721	 0.000000 
S78	 0.485584	 0.562079	 1.000000 
S79	 0.485584	 0.562079	 0.000000 
Mo80	 0.367733	 0.679930	 0.500000 
Mo81	 0.507152	 0.642573	 0.500000 
S82	 0.448226	 0.701498	 1.000000 
S83	 0.448226	 0.701498	 0.000000 
S84	 0.308807	 0.738855	 1.000000 
S85	 0.308807	 0.738855	 0.000000 
Mo86	 0.190956	 0.856707	 0.500000 
Mo87	 0.330375	 0.819349	 0.500000 
S88	 0.271450	 0.878275	 1.000000 
S89	 0.271450	 0.878275	 0.000000 
S90	 0.941199	 0.310587	 1.000000 
S91	 0.941199	 0.310587	 0.000000 
Mo92	 0.823348	 0.428439	 0.500000 
Mo93	 0.962767	 0.391081	 0.500000 
S94	 0.903842	 0.450007	 1.000000 
S95	 0.903842	 0.450007	 0.000000 
S96	 0.764422	 0.487364	 1.000000 
S97	 0.764422	 0.487364	 0.000000 
Mo98	 0.646571	 0.605215	 0.500000 
Mo99	 0.785991	 0.567858	 0.500000 
S100	 0.727065	 0.626783	 1.000000 
S101	 0.727065	 0.626783	 0.000000 
S102	 0.587646	 0.664141	 1.000000 
S103	 0.587646	 0.664141	 0.000000 
Mo104	 0.469795	 0.781992	 0.500000 
Mo105	 0.609214	 0.744635	 0.500000 
S106	 0.550288	 0.803560	 1.000000 
S107	 0.550288	 0.803560	 0.000000 
S108	 0.410869	 0.840917	 1.000000 
S109	 0.410869	 0.840917	 0.000000 
Mo110	 0.293018	 0.958769	 0.500000 
Mo111	 0.432437	 0.921411	 0.500000 
S112	 0.373512	 0.980337	 1.000000 
S113	 0.373512	 0.980337	 0.000000 
Mo114	 0.925410	 0.530501	 0.500000 
S115	 0.866485	 0.589426	 1.000000 
S116	 0.866485	 0.589426	 0.000000 
Mo117	 0.748633	 0.707277	 0.500000 
Mo118	 0.888053	 0.669920	 0.500000 
S119	 0.829127	 0.728846	 1.000000 
S120	 0.829127	 0.728846	 0.000000 
S121	 0.689708	 0.766203	 1.000000 
S122	 0.689708	 0.766203	 0.000000 
Mo123	 0.571857	 0.884054	 0.500000 
Mo124	 0.711276	 0.846697	 0.500000 
S125	 0.652351	 0.905622	 1.000000 
S126	 0.652351	 0.905622	 0.000000 
S127	 0.512931	 0.942980	 1.000000 
S128	 0.512931	 0.942980	 0.000000 
#                 ---end-of-data-block---
