data_Single Layer of MoS2nx 6 ny 4 nz 1
_cell_length_a               21.615994
_cell_length_b               21.615994
_cell_length_c               3.080000
_cell_angle_alpha          90.000000
_cell_angle_beta           90.000000
_cell_angle_gamma          90.000000
_symmetry_cell_setting          Triclinic
_symmetry_space_group_name_H-M 'P 1' 
loop_
_atom_site_label
_atom_site_fract_x
_atom_site_fract_y
_atom_site_fract_z
S1	 0.733925	 0.073869	 1.000000 
S2	 0.733925	 0.073869	 0.000000 
Mo3	 0.572938	 0.117005	 0.500000 
Mo4	 0.712357	 0.154363	 0.500000 
S5	 0.631863	 0.175931	 1.000000 
S6	 0.631863	 0.175931	 0.000000 
S7	 0.492444	 0.138574	 1.000000 
S8	 0.492444	 0.138574	 0.000000 
Mo9	 0.331456	 0.181710	 0.500000 
Mo10	 0.470876	 0.219067	 0.500000 
S11	 0.390382	 0.240636	 1.000000 
S12	 0.390382	 0.240636	 0.000000 
S13	 0.250962	 0.203278	 1.000000 
S14	 0.250962	 0.203278	 0.000000 
Mo15	 0.089975	 0.246415	 0.500000 
Mo16	 0.229394	 0.283772	 0.500000 
S17	 0.148900	 0.305340	 1.000000 
S18	 0.148900	 0.305340	 0.000000 
S19	 0.009481	 0.267983	 1.000000 
S20	 0.009481	 0.267983	 0.000000 
Mo21	 0.814419	 0.052301	 0.500000 
S22	 0.873345	 0.111226	 1.000000 
S23	 0.873345	 0.111226	 0.000000 
S24	 0.771283	 0.213288	 1.000000 
S25	 0.771283	 0.213288	 0.000000 
Mo26	 0.610295	 0.256425	 0.500000 
Mo27	 0.749714	 0.293782	 0.500000 
S28	 0.669220	 0.315350	 1.000000 
S29	 0.669220	 0.315350	 0.000000 
S30	 0.529801	 0.277993	 1.000000 
S31	 0.529801	 0.277993	 0.000000 
Mo32	 0.368813	 0.321129	 0.500000 
Mo33	 0.508233	 0.358487	 0.500000 
S34	 0.427739	 0.380055	 1.000000 
S35	 0.427739	 0.380055	 0.000000 
S36	 0.288320	 0.342698	 1.000000 
S37	 0.288320	 0.342698	 0.000000 
Mo38	 0.127332	 0.385834	 0.500000 
Mo39	 0.266751	 0.423192	 0.500000 
S40	 0.186258	 0.444760	 1.000000 
S41	 0.186258	 0.444760	 0.000000 
S42	 0.046838	 0.407402	 1.000000 
S43	 0.046838	 0.407402	 0.000000 
Mo44	 0.851776	 0.191720	 0.500000 
Mo45	 0.025270	 0.487896	 0.500000 
S46	 0.910702	 0.250645	 1.000000 
S47	 0.910702	 0.250645	 0.000000 
S48	 0.808640	 0.352708	 1.000000 
S49	 0.808640	 0.352708	 0.000000 
Mo50	 0.647652	 0.395844	 0.500000 
Mo51	 0.787072	 0.433201	 0.500000 
S52	 0.706578	 0.454770	 1.000000 
S53	 0.706578	 0.454770	 0.000000 
S54	 0.567158	 0.417412	 1.000000 
S55	 0.567158	 0.417412	 0.000000 
Mo56	 0.406171	 0.460549	 0.500000 
Mo57	 0.545590	 0.497906	 0.500000 
S58	 0.465096	 0.519474	 1.000000 
S59	 0.465096	 0.519474	 0.000000 
S60	 0.325677	 0.482117	 1.000000 
S61	 0.325677	 0.482117	 0.000000 
Mo62	 0.164689	 0.525254	 0.500000 
Mo63	 0.304109	 0.562611	 0.500000 
S64	 0.223615	 0.584179	 1.000000 
S65	 0.223615	 0.584179	 0.000000 
S66	 0.084196	 0.546822	 1.000000 
S67	 0.084196	 0.546822	 0.000000 
Mo68	 0.889134	 0.331139	 0.500000 
Mo69	 0.062627	 0.627316	 0.500000 
S70	 0.948059	 0.390065	 1.000000 
S71	 0.948059	 0.390065	 0.000000 
S72	 0.845997	 0.492127	 1.000000 
S73	 0.845997	 0.492127	 0.000000 
Mo74	 0.685010	 0.535263	 0.500000 
Mo75	 0.824429	 0.572621	 0.500000 
S76	 0.743935	 0.594189	 1.000000 
S77	 0.743935	 0.594189	 0.000000 
S78	 0.604516	 0.556832	 1.000000 
S79	 0.604516	 0.556832	 0.000000 
Mo80	 0.443528	 0.599968	 0.500000 
Mo81	 0.582947	 0.637326	 0.500000 
S82	 0.502454	 0.658894	 1.000000 
S83	 0.502454	 0.658894	 0.000000 
S84	 0.363034	 0.621536	 1.000000 
S85	 0.363034	 0.621536	 0.000000 
Mo86	 0.202047	 0.664673	 0.500000 
Mo87	 0.341466	 0.702030	 0.500000 
S88	 0.260972	 0.723599	 1.000000 
S89	 0.260972	 0.723599	 0.000000 
S90	 0.121553	 0.686241	 1.000000 
S91	 0.121553	 0.686241	 0.000000 
Mo92	 0.926491	 0.470559	 0.500000 
Mo93	 0.099985	 0.766735	 0.500000 
S94	 0.985417	 0.529484	 1.000000 
S95	 0.985417	 0.529484	 0.000000 
S96	 0.883354	 0.631546	 1.000000 
S97	 0.883354	 0.631546	 0.000000 
Mo98	 0.722367	 0.674683	 0.500000 
Mo99	 0.861786	 0.712040	 0.500000 
S100	 0.781292	 0.733608	 1.000000 
S101	 0.781292	 0.733608	 0.000000 
S102	 0.641873	 0.696251	 1.000000 
S103	 0.641873	 0.696251	 0.000000 
Mo104	 0.480885	 0.739388	 0.500000 
Mo105	 0.620305	 0.776745	 0.500000 
S106	 0.539811	 0.798313	 1.000000 
S107	 0.539811	 0.798313	 0.000000 
S108	 0.400392	 0.760956	 1.000000 
S109	 0.400392	 0.760956	 0.000000 
Mo110	 0.239404	 0.804092	 0.500000 
Mo111	 0.378823	 0.841450	 0.500000 
S112	 0.298330	 0.863018	 1.000000 
S113	 0.298330	 0.863018	 0.000000 
S114	 0.158910	 0.825661	 1.000000 
S115	 0.158910	 0.825661	 0.000000 
Mo116	 0.963848	 0.609978	 0.500000 
Mo117	 0.137342	 0.906154	 0.500000 
S118	 0.920712	 0.770966	 1.000000 
S119	 0.920712	 0.770966	 0.000000 
Mo120	 0.759724	 0.814102	 0.500000 
Mo121	 0.675000	 0.014943	 0.500000 
S122	 0.594506	 0.036511	 1.000000 
S123	 0.594506	 0.036511	 0.000000 
S124	 0.679230	 0.835670	 1.000000 
S125	 0.679230	 0.835670	 0.000000 
Mo126	 0.518243	 0.878807	 0.500000 
Mo127	 0.433518	 0.079648	 0.500000 
S128	 0.353024	 0.101216	 1.000000 
S129	 0.353024	 0.101216	 0.000000 
S130	 0.437749	 0.900375	 1.000000 
S131	 0.437749	 0.900375	 0.000000 
Mo132	 0.276761	 0.943512	 0.500000 
Mo133	 0.192037	 0.144353	 0.500000 
S134	 0.111543	 0.165921	 1.000000 
S135	 0.111543	 0.165921	 0.000000 
S136	 0.196267	 0.965080	 1.000000 
S137	 0.196267	 0.965080	 0.000000 
#                 ---end-of-data-block---
