data_Single Layer of MoS2nx 6 ny 4 nz 1
_cell_length_a               21.615994
_cell_length_b               21.615994
_cell_length_c               3.080000
_cell_angle_alpha          90.000000
_cell_angle_beta           90.000000
_cell_angle_gamma          90.000000
_symmetry_cell_setting          Triclinic
_symmetry_space_group_name_H-M 'P 1' 
loop_
_atom_site_label
_atom_site_fract_x
_atom_site_fract_y
_atom_site_fract_z
S1	 0.695705	 0.008809	 1.000000 
S2	 0.695705	 0.008809	 0.000000 
Mo3	 0.534717	 0.051946	 0.500000 
Mo4	 0.674137	 0.089303	 0.500000 
S5	 0.593643	 0.110871	 1.000000 
S6	 0.593643	 0.110871	 0.000000 
S7	 0.454224	 0.073514	 1.000000 
S8	 0.454224	 0.073514	 0.000000 
Mo9	 0.293236	 0.116650	 0.500000 
Mo10	 0.432655	 0.154008	 0.500000 
S11	 0.352161	 0.175576	 1.000000 
S12	 0.352161	 0.175576	 0.000000 
S13	 0.212742	 0.138219	 1.000000 
S14	 0.212742	 0.138219	 0.000000 
Mo15	 0.051754	 0.181355	 0.500000 
Mo16	 0.191174	 0.218713	 0.500000 
S17	 0.110680	 0.240281	 1.000000 
S18	 0.110680	 0.240281	 0.000000 
S19	 0.835124	 0.046166	 1.000000 
S20	 0.835124	 0.046166	 0.000000 
S21	 0.733062	 0.148229	 1.000000 
S22	 0.733062	 0.148229	 0.000000 
Mo23	 0.572075	 0.191365	 0.500000 
Mo24	 0.711494	 0.228722	 0.500000 
S25	 0.631000	 0.250291	 1.000000 
S26	 0.631000	 0.250291	 0.000000 
S27	 0.491581	 0.212933	 1.000000 
S28	 0.491581	 0.212933	 0.000000 
Mo29	 0.330593	 0.256070	 0.500000 
Mo30	 0.470013	 0.293427	 0.500000 
S31	 0.389519	 0.314995	 1.000000 
S32	 0.389519	 0.314995	 0.000000 
S33	 0.250099	 0.277638	 1.000000 
S34	 0.250099	 0.277638	 0.000000 
Mo35	 0.089112	 0.320775	 0.500000 
Mo36	 0.228531	 0.358132	 0.500000 
S37	 0.148037	 0.379700	 1.000000 
S38	 0.148037	 0.379700	 0.000000 
S39	 0.008618	 0.342343	 1.000000 
S40	 0.008618	 0.342343	 0.000000 
Mo41	 0.813556	 0.126660	 0.500000 
S42	 0.872482	 0.185586	 1.000000 
S43	 0.872482	 0.185586	 0.000000 
S44	 0.770420	 0.287648	 1.000000 
S45	 0.770420	 0.287648	 0.000000 
Mo46	 0.609432	 0.330784	 0.500000 
Mo47	 0.748851	 0.368142	 0.500000 
S48	 0.668358	 0.389710	 1.000000 
S49	 0.668358	 0.389710	 0.000000 
S50	 0.528938	 0.352353	 1.000000 
S51	 0.528938	 0.352353	 0.000000 
Mo52	 0.367951	 0.395489	 0.500000 
Mo53	 0.507370	 0.432847	 0.500000 
S54	 0.426876	 0.454415	 1.000000 
S55	 0.426876	 0.454415	 0.000000 
S56	 0.287457	 0.417057	 1.000000 
S57	 0.287457	 0.417057	 0.000000 
Mo58	 0.126469	 0.460194	 0.500000 
Mo59	 0.265888	 0.497551	 0.500000 
S60	 0.185395	 0.519120	 1.000000 
S61	 0.185395	 0.519120	 0.000000 
S62	 0.045975	 0.481762	 1.000000 
S63	 0.045975	 0.481762	 0.000000 
Mo64	 0.850913	 0.266080	 0.500000 
Mo65	 0.024407	 0.562256	 0.500000 
S66	 0.909839	 0.325005	 1.000000 
S67	 0.909839	 0.325005	 0.000000 
S68	 0.807777	 0.427067	 1.000000 
S69	 0.807777	 0.427067	 0.000000 
Mo70	 0.646789	 0.470204	 0.500000 
Mo71	 0.786209	 0.507561	 0.500000 
S72	 0.705715	 0.529129	 1.000000 
S73	 0.705715	 0.529129	 0.000000 
S74	 0.566295	 0.491772	 1.000000 
S75	 0.566295	 0.491772	 0.000000 
Mo76	 0.405308	 0.534909	 0.500000 
Mo77	 0.544727	 0.572266	 0.500000 
S78	 0.464233	 0.593834	 1.000000 
S79	 0.464233	 0.593834	 0.000000 
S80	 0.324814	 0.556477	 1.000000 
S81	 0.324814	 0.556477	 0.000000 
Mo82	 0.163826	 0.599613	 0.500000 
Mo83	 0.303246	 0.636971	 0.500000 
S84	 0.222752	 0.658539	 1.000000 
S85	 0.222752	 0.658539	 0.000000 
S86	 0.083333	 0.621182	 1.000000 
S87	 0.083333	 0.621182	 0.000000 
Mo88	 0.888271	 0.405499	 0.500000 
Mo89	 0.061764	 0.701675	 0.500000 
S90	 0.947196	 0.464425	 1.000000 
S91	 0.947196	 0.464425	 0.000000 
S92	 0.845134	 0.566487	 1.000000 
S93	 0.845134	 0.566487	 0.000000 
Mo94	 0.684147	 0.609623	 0.500000 
Mo95	 0.823566	 0.646981	 0.500000 
S96	 0.743072	 0.668549	 1.000000 
S97	 0.743072	 0.668549	 0.000000 
S98	 0.603653	 0.631191	 1.000000 
S99	 0.603653	 0.631191	 0.000000 
Mo100	 0.442665	 0.674328	 0.500000 
Mo101	 0.582085	 0.711685	 0.500000 
S102	 0.501591	 0.733254	 1.000000 
S103	 0.501591	 0.733254	 0.000000 
S104	 0.362171	 0.695896	 1.000000 
S105	 0.362171	 0.695896	 0.000000 
Mo106	 0.201184	 0.739033	 0.500000 
Mo107	 0.340603	 0.776390	 0.500000 
S108	 0.260109	 0.797958	 1.000000 
S109	 0.260109	 0.797958	 0.000000 
S110	 0.120690	 0.760601	 1.000000 
S111	 0.120690	 0.760601	 0.000000 
Mo112	 0.925628	 0.544918	 0.500000 
Mo113	 0.099122	 0.841095	 0.500000 
S114	 0.984554	 0.603844	 1.000000 
S115	 0.984554	 0.603844	 0.000000 
S116	 0.882492	 0.705906	 1.000000 
S117	 0.882492	 0.705906	 0.000000 
Mo118	 0.721504	 0.749043	 0.500000 
Mo119	 0.860923	 0.786400	 0.500000 
S120	 0.780429	 0.807968	 1.000000 
S121	 0.780429	 0.807968	 0.000000 
S122	 0.641010	 0.770611	 1.000000 
S123	 0.641010	 0.770611	 0.000000 
Mo124	 0.480022	 0.813747	 0.500000 
Mo125	 0.619442	 0.851105	 0.500000 
S126	 0.538948	 0.872673	 1.000000 
S127	 0.538948	 0.872673	 0.000000 
S128	 0.399529	 0.835316	 1.000000 
S129	 0.399529	 0.835316	 0.000000 
Mo130	 0.238541	 0.878452	 0.500000 
Mo131	 0.377960	 0.915809	 0.500000 
S132	 0.297467	 0.937378	 1.000000 
S133	 0.297467	 0.937378	 0.000000 
S134	 0.158047	 0.900020	 1.000000 
S135	 0.158047	 0.900020	 0.000000 
Mo136	 0.962985	 0.684338	 0.500000 
Mo137	 0.136479	 0.980514	 0.500000 
#                 ---end-of-data-block---
