data_A fcc partile with size of 24 A with 100/111/110 ratio of 1/0.805974/2
_cell_length_a               31.360000
_cell_length_b               31.360000
_cell_length_c               31.360000
_cell_angle_alpha          90.000000
_cell_angle_beta           90.000000
_cell_angle_gamma          90.000000
_symmetry_cell_setting          Triclinic
_symmetry_space_group_name_H-M 'P 1' 
loop_
_atom_site_label
_atom_site_fract_x
_atom_site_fract_y
_atom_site_fract_z
Pt1	 0.460327	 0.355045	 0.187500 
Pt2	 0.613420	 0.443433	 0.187500 
Pt3	 0.553050	 0.459609	 0.125000 
Pt4	 0.536874	 0.399239	 0.187500 
Pt5	 0.476503	 0.415415	 0.125000 
Pt6	 0.492680	 0.475785	 0.187500 
Pt7	 0.432309	 0.491962	 0.125000 
Pt8	 0.416133	 0.431591	 0.187500 
Pt9	 0.371939	 0.508138	 0.187500 
Pt10	 0.689967	 0.487627	 0.187500 
Pt11	 0.629597	 0.503803	 0.125000 
Pt12	 0.645773	 0.564174	 0.187500 
Pt13	 0.585402	 0.580350	 0.125000 
Pt14	 0.569226	 0.519980	 0.187500 
Pt15	 0.508856	 0.536156	 0.125000 
Pt16	 0.525032	 0.596526	 0.187500 
Pt17	 0.464662	 0.612702	 0.125000 
Pt18	 0.448485	 0.552332	 0.187500 
Pt19	 0.388115	 0.568508	 0.125000 
Pt20	 0.404291	 0.628878	 0.187500 
Pt21	 0.327745	 0.584684	 0.187500 
Pt22	 0.601579	 0.640720	 0.187500 
Pt23	 0.541208	 0.656896	 0.125000 
Pt24	 0.557384	 0.717267	 0.187500 
Pt25	 0.480838	 0.673073	 0.187500 
Pt26	 0.427975	 0.234304	 0.312500 
Pt27	 0.581068	 0.322692	 0.312500 
Pt28	 0.520698	 0.338868	 0.250000 
Pt29	 0.504521	 0.278498	 0.312500 
Pt30	 0.444151	 0.294674	 0.250000 
Pt31	 0.460327	 0.355045	 0.312500 
Pt32	 0.399957	 0.371221	 0.250000 
Pt33	 0.383781	 0.310850	 0.312500 
Pt34	 0.339587	 0.387397	 0.312500 
Pt35	 0.734161	 0.411081	 0.312500 
Pt36	 0.673791	 0.427257	 0.250000 
Pt37	 0.657615	 0.366886	 0.312500 
Pt38	 0.597244	 0.383063	 0.250000 
Pt39	 0.613420	 0.443433	 0.312500 
Pt40	 0.553050	 0.459609	 0.250000 
Pt41	 0.536874	 0.399239	 0.312500 
Pt42	 0.476503	 0.415415	 0.250000 
Pt43	 0.492680	 0.475785	 0.312500 
Pt44	 0.432309	 0.491962	 0.250000 
Pt45	 0.416133	 0.431591	 0.312500 
Pt46	 0.355763	 0.447767	 0.250000 
Pt47	 0.371939	 0.508138	 0.312500 
Pt48	 0.311569	 0.524314	 0.250000 
Pt49	 0.295392	 0.463944	 0.312500 
Pt50	 0.251198	 0.540490	 0.312500 
Pt51	 0.810708	 0.455275	 0.312500 
Pt52	 0.750337	 0.471451	 0.250000 
Pt53	 0.766513	 0.531821	 0.312500 
Pt54	 0.706143	 0.547998	 0.250000 
Pt55	 0.689967	 0.487627	 0.312500 
Pt56	 0.629597	 0.503803	 0.250000 
Pt57	 0.645773	 0.564174	 0.312500 
Pt58	 0.585402	 0.580350	 0.250000 
Pt59	 0.569226	 0.519980	 0.312500 
Pt60	 0.508856	 0.536156	 0.250000 
Pt61	 0.525032	 0.596526	 0.312500 
Pt62	 0.464662	 0.612702	 0.250000 
Pt63	 0.448485	 0.552332	 0.312500 
Pt64	 0.388115	 0.568508	 0.250000 
Pt65	 0.404291	 0.628878	 0.312500 
Pt66	 0.343921	 0.645055	 0.250000 
Pt67	 0.327745	 0.584684	 0.312500 
Pt68	 0.267374	 0.600860	 0.250000 
Pt69	 0.283551	 0.661231	 0.312500 
Pt70	 0.207004	 0.617037	 0.312500 
Pt71	 0.722319	 0.608368	 0.312500 
Pt72	 0.661949	 0.624544	 0.250000 
Pt73	 0.678125	 0.684914	 0.312500 
Pt74	 0.617755	 0.701091	 0.250000 
Pt75	 0.601579	 0.640720	 0.312500 
Pt76	 0.541208	 0.656896	 0.250000 
Pt77	 0.557384	 0.717267	 0.312500 
Pt78	 0.497014	 0.733443	 0.250000 
Pt79	 0.480838	 0.673073	 0.312500 
Pt80	 0.420467	 0.689249	 0.250000 
Pt81	 0.436644	 0.749619	 0.312500 
Pt82	 0.360097	 0.705425	 0.312500 
Pt83	 0.633931	 0.761461	 0.312500 
Pt84	 0.573561	 0.777637	 0.250000 
Pt85	 0.589737	 0.838008	 0.312500 
Pt86	 0.513190	 0.793813	 0.312500 
Pt87	 0.548716	 0.201952	 0.437500 
Pt88	 0.488345	 0.218128	 0.375000 
Pt89	 0.472169	 0.157757	 0.437500 
Pt90	 0.411799	 0.173934	 0.375000 
Pt91	 0.427975	 0.234304	 0.437500 
Pt92	 0.367604	 0.250480	 0.375000 
Pt93	 0.351428	 0.190110	 0.437500 
Pt94	 0.307234	 0.266656	 0.437500 
Pt95	 0.701809	 0.290340	 0.437500 
Pt96	 0.641438	 0.306516	 0.375000 
Pt97	 0.625262	 0.246146	 0.437500 
Pt98	 0.564892	 0.262322	 0.375000 
Pt99	 0.581068	 0.322692	 0.437500 
Pt100	 0.520698	 0.338868	 0.375000 
Pt101	 0.504521	 0.278498	 0.437500 
Pt102	 0.444151	 0.294674	 0.375000 
Pt103	 0.460327	 0.355045	 0.437500 
Pt104	 0.399957	 0.371221	 0.375000 
Pt105	 0.383781	 0.310850	 0.437500 
Pt106	 0.323410	 0.327027	 0.375000 
Pt107	 0.339587	 0.387397	 0.437500 
Pt108	 0.279216	 0.403573	 0.375000 
Pt109	 0.263040	 0.343203	 0.437500 
Pt110	 0.218846	 0.419749	 0.437500 
Pt111	 0.854902	 0.378728	 0.437500 
Pt112	 0.794531	 0.394904	 0.375000 
Pt113	 0.778355	 0.334534	 0.437500 
Pt114	 0.717985	 0.350710	 0.375000 
Pt115	 0.734161	 0.411081	 0.437500 
Pt116	 0.673791	 0.427257	 0.375000 
Pt117	 0.657615	 0.366886	 0.437500 
Pt118	 0.597244	 0.383063	 0.375000 
Pt119	 0.613420	 0.443433	 0.437500 
Pt120	 0.553050	 0.459609	 0.375000 
Pt121	 0.536874	 0.399239	 0.437500 
Pt122	 0.476503	 0.415415	 0.375000 
Pt123	 0.492680	 0.475785	 0.437500 
Pt124	 0.432309	 0.491962	 0.375000 
Pt125	 0.416133	 0.431591	 0.437500 
Pt126	 0.355763	 0.447767	 0.375000 
Pt127	 0.371939	 0.508138	 0.437500 
Pt128	 0.311569	 0.524314	 0.375000 
Pt129	 0.295392	 0.463944	 0.437500 
Pt130	 0.235022	 0.480120	 0.375000 
Pt131	 0.251198	 0.540490	 0.437500 
Pt132	 0.190828	 0.556666	 0.375000 
Pt133	 0.174652	 0.496296	 0.437500 
Pt134	 0.130457	 0.572843	 0.437500 
Pt135	 0.871078	 0.439099	 0.375000 
Pt136	 0.887254	 0.499469	 0.437500 
Pt137	 0.826884	 0.515645	 0.375000 
Pt138	 0.810708	 0.455275	 0.437500 
Pt139	 0.750337	 0.471451	 0.375000 
Pt140	 0.766513	 0.531821	 0.437500 
Pt141	 0.706143	 0.547998	 0.375000 
Pt142	 0.689967	 0.487627	 0.437500 
Pt143	 0.629597	 0.503803	 0.375000 
Pt144	 0.645773	 0.564174	 0.437500 
Pt145	 0.585402	 0.580350	 0.375000 
Pt146	 0.569226	 0.519980	 0.437500 
Pt147	 0.508856	 0.536156	 0.375000 
Pt148	 0.525032	 0.596526	 0.437500 
Pt149	 0.464662	 0.612702	 0.375000 
Pt150	 0.448485	 0.552332	 0.437500 
Pt151	 0.388115	 0.568508	 0.375000 
Pt152	 0.404291	 0.628878	 0.437500 
Pt153	 0.343921	 0.645055	 0.375000 
Pt154	 0.327745	 0.584684	 0.437500 
Pt155	 0.267374	 0.600860	 0.375000 
Pt156	 0.283551	 0.661231	 0.437500 
Pt157	 0.223180	 0.677407	 0.375000 
Pt158	 0.207004	 0.617037	 0.437500 
Pt159	 0.146634	 0.633213	 0.375000 
Pt160	 0.162810	 0.693583	 0.437500 
Pt161	 0.843060	 0.576016	 0.437500 
Pt162	 0.782690	 0.592192	 0.375000 
Pt163	 0.798866	 0.652562	 0.437500 
Pt164	 0.738495	 0.668738	 0.375000 
Pt165	 0.722319	 0.608368	 0.437500 
Pt166	 0.661949	 0.624544	 0.375000 
Pt167	 0.678125	 0.684914	 0.437500 
Pt168	 0.617755	 0.701091	 0.375000 
Pt169	 0.601579	 0.640720	 0.437500 
Pt170	 0.541208	 0.656896	 0.375000 
Pt171	 0.557384	 0.717267	 0.437500 
Pt172	 0.497014	 0.733443	 0.375000 
Pt173	 0.480838	 0.673073	 0.437500 
Pt174	 0.420467	 0.689249	 0.375000 
Pt175	 0.436644	 0.749619	 0.437500 
Pt176	 0.376273	 0.765795	 0.375000 
Pt177	 0.360097	 0.705425	 0.437500 
Pt178	 0.299727	 0.721601	 0.375000 
Pt179	 0.315903	 0.781972	 0.437500 
Pt180	 0.239356	 0.737777	 0.437500 
Pt181	 0.754672	 0.729109	 0.437500 
Pt182	 0.694301	 0.745285	 0.375000 
Pt183	 0.710477	 0.805655	 0.437500 
Pt184	 0.650107	 0.821831	 0.375000 
Pt185	 0.633931	 0.761461	 0.437500 
Pt186	 0.573561	 0.777637	 0.375000 
Pt187	 0.589737	 0.838008	 0.437500 
Pt188	 0.529366	 0.854184	 0.375000 
Pt189	 0.513190	 0.793813	 0.437500 
Pt190	 0.452820	 0.809990	 0.375000 
Pt191	 0.468996	 0.870360	 0.437500 
Pt192	 0.392449	 0.826166	 0.437500 
Pt193	 0.666283	 0.882202	 0.437500 
Pt194	 0.605913	 0.898378	 0.375000 
Pt195	 0.545543	 0.914554	 0.437500 
Pt196	 0.609086	 0.185775	 0.500000 
Pt197	 0.532539	 0.141581	 0.500000 
Pt198	 0.548716	 0.201952	 0.562500 
Pt199	 0.488345	 0.218128	 0.500000 
Pt200	 0.472169	 0.157757	 0.562500 
Pt201	 0.411799	 0.173934	 0.500000 
Pt202	 0.427975	 0.234304	 0.562500 
Pt203	 0.367604	 0.250480	 0.500000 
Pt204	 0.351428	 0.190110	 0.562500 
Pt205	 0.291058	 0.206286	 0.500000 
Pt206	 0.307234	 0.266656	 0.562500 
Pt207	 0.246864	 0.282832	 0.500000 
Pt208	 0.762179	 0.274164	 0.500000 
Pt209	 0.685633	 0.229970	 0.500000 
Pt210	 0.701809	 0.290340	 0.562500 
Pt211	 0.641438	 0.306516	 0.500000 
Pt212	 0.625262	 0.246146	 0.562500 
Pt213	 0.564892	 0.262322	 0.500000 
Pt214	 0.581068	 0.322692	 0.562500 
Pt215	 0.520698	 0.338868	 0.500000 
Pt216	 0.504521	 0.278498	 0.562500 
Pt217	 0.444151	 0.294674	 0.500000 
Pt218	 0.460327	 0.355045	 0.562500 
Pt219	 0.399957	 0.371221	 0.500000 
Pt220	 0.383781	 0.310850	 0.562500 
Pt221	 0.323410	 0.327027	 0.500000 
Pt222	 0.339587	 0.387397	 0.562500 
Pt223	 0.279216	 0.403573	 0.500000 
Pt224	 0.263040	 0.343203	 0.562500 
Pt225	 0.202670	 0.359379	 0.500000 
Pt226	 0.218846	 0.419749	 0.562500 
Pt227	 0.158475	 0.435926	 0.500000 
Pt228	 0.838726	 0.318358	 0.500000 
Pt229	 0.854902	 0.378728	 0.562500 
Pt230	 0.794531	 0.394904	 0.500000 
Pt231	 0.778355	 0.334534	 0.562500 
Pt232	 0.717985	 0.350710	 0.500000 
Pt233	 0.734161	 0.411081	 0.562500 
Pt234	 0.673791	 0.427257	 0.500000 
Pt235	 0.657615	 0.366886	 0.562500 
Pt236	 0.597244	 0.383063	 0.500000 
Pt237	 0.613420	 0.443433	 0.562500 
Pt238	 0.553050	 0.459609	 0.500000 
Pt239	 0.536874	 0.399239	 0.562500 
Pt240	 0.476503	 0.415415	 0.500000 
Pt241	 0.492680	 0.475785	 0.562500 
Pt242	 0.432309	 0.491962	 0.500000 
Pt243	 0.416133	 0.431591	 0.562500 
Pt244	 0.355763	 0.447767	 0.500000 
Pt245	 0.371939	 0.508138	 0.562500 
Pt246	 0.311569	 0.524314	 0.500000 
Pt247	 0.295392	 0.463944	 0.562500 
Pt248	 0.235022	 0.480120	 0.500000 
Pt249	 0.251198	 0.540490	 0.562500 
Pt250	 0.190828	 0.556666	 0.500000 
Pt251	 0.174652	 0.496296	 0.562500 
Pt252	 0.114281	 0.512472	 0.500000 
Pt253	 0.130457	 0.572843	 0.562500 
Pt254	 0.871078	 0.439099	 0.500000 
Pt255	 0.887254	 0.499469	 0.562500 
Pt256	 0.826884	 0.515645	 0.500000 
Pt257	 0.810708	 0.455275	 0.562500 
Pt258	 0.750337	 0.471451	 0.500000 
Pt259	 0.766513	 0.531821	 0.562500 
Pt260	 0.706143	 0.547998	 0.500000 
Pt261	 0.689967	 0.487627	 0.562500 
Pt262	 0.629597	 0.503803	 0.500000 
Pt263	 0.645773	 0.564174	 0.562500 
Pt264	 0.585402	 0.580350	 0.500000 
Pt265	 0.569226	 0.519980	 0.562500 
Pt266	 0.508856	 0.536156	 0.500000 
Pt267	 0.525032	 0.596526	 0.562500 
Pt268	 0.464662	 0.612702	 0.500000 
Pt269	 0.448485	 0.552332	 0.562500 
Pt270	 0.388115	 0.568508	 0.500000 
Pt271	 0.404291	 0.628878	 0.562500 
Pt272	 0.343921	 0.645055	 0.500000 
Pt273	 0.327745	 0.584684	 0.562500 
Pt274	 0.267374	 0.600860	 0.500000 
Pt275	 0.283551	 0.661231	 0.562500 
Pt276	 0.223180	 0.677407	 0.500000 
Pt277	 0.207004	 0.617037	 0.562500 
Pt278	 0.146634	 0.633213	 0.500000 
Pt279	 0.162810	 0.693583	 0.562500 
Pt280	 0.903430	 0.559839	 0.500000 
Pt281	 0.859236	 0.636386	 0.500000 
Pt282	 0.843060	 0.576016	 0.562500 
Pt283	 0.782690	 0.592192	 0.500000 
Pt284	 0.798866	 0.652562	 0.562500 
Pt285	 0.738495	 0.668738	 0.500000 
Pt286	 0.722319	 0.608368	 0.562500 
Pt287	 0.661949	 0.624544	 0.500000 
Pt288	 0.678125	 0.684914	 0.562500 
Pt289	 0.617755	 0.701091	 0.500000 
Pt290	 0.601579	 0.640720	 0.562500 
Pt291	 0.541208	 0.656896	 0.500000 
Pt292	 0.557384	 0.717267	 0.562500 
Pt293	 0.497014	 0.733443	 0.500000 
Pt294	 0.480838	 0.673073	 0.562500 
Pt295	 0.420467	 0.689249	 0.500000 
Pt296	 0.436644	 0.749619	 0.562500 
Pt297	 0.376273	 0.765795	 0.500000 
Pt298	 0.360097	 0.705425	 0.562500 
Pt299	 0.299727	 0.721601	 0.500000 
Pt300	 0.315903	 0.781972	 0.562500 
Pt301	 0.255533	 0.798148	 0.500000 
Pt302	 0.239356	 0.737777	 0.562500 
Pt303	 0.178986	 0.753954	 0.500000 
Pt304	 0.815042	 0.712932	 0.500000 
Pt305	 0.770848	 0.789479	 0.500000 
Pt306	 0.754672	 0.729109	 0.562500 
Pt307	 0.694301	 0.745285	 0.500000 
Pt308	 0.710477	 0.805655	 0.562500 
Pt309	 0.650107	 0.821831	 0.500000 
Pt310	 0.633931	 0.761461	 0.562500 
Pt311	 0.573561	 0.777637	 0.500000 
Pt312	 0.589737	 0.838008	 0.562500 
Pt313	 0.529366	 0.854184	 0.500000 
Pt314	 0.513190	 0.793813	 0.562500 
Pt315	 0.452820	 0.809990	 0.500000 
Pt316	 0.468996	 0.870360	 0.562500 
Pt317	 0.408626	 0.886536	 0.500000 
Pt318	 0.392449	 0.826166	 0.562500 
Pt319	 0.332079	 0.842342	 0.500000 
Pt320	 0.726654	 0.866026	 0.500000 
Pt321	 0.666283	 0.882202	 0.562500 
Pt322	 0.605913	 0.898378	 0.500000 
Pt323	 0.545543	 0.914554	 0.562500 
Pt324	 0.485172	 0.930730	 0.500000 
Pt325	 0.488345	 0.218128	 0.625000 
Pt326	 0.411799	 0.173934	 0.625000 
Pt327	 0.427975	 0.234304	 0.687500 
Pt328	 0.367604	 0.250480	 0.625000 
Pt329	 0.641438	 0.306516	 0.625000 
Pt330	 0.564892	 0.262322	 0.625000 
Pt331	 0.581068	 0.322692	 0.687500 
Pt332	 0.520698	 0.338868	 0.625000 
Pt333	 0.504521	 0.278498	 0.687500 
Pt334	 0.444151	 0.294674	 0.625000 
Pt335	 0.460327	 0.355045	 0.687500 
Pt336	 0.399957	 0.371221	 0.625000 
Pt337	 0.383781	 0.310850	 0.687500 
Pt338	 0.323410	 0.327027	 0.625000 
Pt339	 0.339587	 0.387397	 0.687500 
Pt340	 0.279216	 0.403573	 0.625000 
Pt341	 0.794531	 0.394904	 0.625000 
Pt342	 0.717985	 0.350710	 0.625000 
Pt343	 0.734161	 0.411081	 0.687500 
Pt344	 0.673791	 0.427257	 0.625000 
Pt345	 0.657615	 0.366886	 0.687500 
Pt346	 0.597244	 0.383063	 0.625000 
Pt347	 0.613420	 0.443433	 0.687500 
Pt348	 0.553050	 0.459609	 0.625000 
Pt349	 0.536874	 0.399239	 0.687500 
Pt350	 0.476503	 0.415415	 0.625000 
Pt351	 0.492680	 0.475785	 0.687500 
Pt352	 0.432309	 0.491962	 0.625000 
Pt353	 0.416133	 0.431591	 0.687500 
Pt354	 0.355763	 0.447767	 0.625000 
Pt355	 0.371939	 0.508138	 0.687500 
Pt356	 0.311569	 0.524314	 0.625000 
Pt357	 0.295392	 0.463944	 0.687500 
Pt358	 0.235022	 0.480120	 0.625000 
Pt359	 0.251198	 0.540490	 0.687500 
Pt360	 0.190828	 0.556666	 0.625000 
Pt361	 0.871078	 0.439099	 0.625000 
Pt362	 0.826884	 0.515645	 0.625000 
Pt363	 0.810708	 0.455275	 0.687500 
Pt364	 0.750337	 0.471451	 0.625000 
Pt365	 0.766513	 0.531821	 0.687500 
Pt366	 0.706143	 0.547998	 0.625000 
Pt367	 0.689967	 0.487627	 0.687500 
Pt368	 0.629597	 0.503803	 0.625000 
Pt369	 0.645773	 0.564174	 0.687500 
Pt370	 0.585402	 0.580350	 0.625000 
Pt371	 0.569226	 0.519980	 0.687500 
Pt372	 0.508856	 0.536156	 0.625000 
Pt373	 0.525032	 0.596526	 0.687500 
Pt374	 0.464662	 0.612702	 0.625000 
Pt375	 0.448485	 0.552332	 0.687500 
Pt376	 0.388115	 0.568508	 0.625000 
Pt377	 0.404291	 0.628878	 0.687500 
Pt378	 0.343921	 0.645055	 0.625000 
Pt379	 0.327745	 0.584684	 0.687500 
Pt380	 0.267374	 0.600860	 0.625000 
Pt381	 0.283551	 0.661231	 0.687500 
Pt382	 0.223180	 0.677407	 0.625000 
Pt383	 0.207004	 0.617037	 0.687500 
Pt384	 0.146634	 0.633213	 0.625000 
Pt385	 0.782690	 0.592192	 0.625000 
Pt386	 0.738495	 0.668738	 0.625000 
Pt387	 0.722319	 0.608368	 0.687500 
Pt388	 0.661949	 0.624544	 0.625000 
Pt389	 0.678125	 0.684914	 0.687500 
Pt390	 0.617755	 0.701091	 0.625000 
Pt391	 0.601579	 0.640720	 0.687500 
Pt392	 0.541208	 0.656896	 0.625000 
Pt393	 0.557384	 0.717267	 0.687500 
Pt394	 0.497014	 0.733443	 0.625000 
Pt395	 0.480838	 0.673073	 0.687500 
Pt396	 0.420467	 0.689249	 0.625000 
Pt397	 0.436644	 0.749619	 0.687500 
Pt398	 0.376273	 0.765795	 0.625000 
Pt399	 0.360097	 0.705425	 0.687500 
Pt400	 0.299727	 0.721601	 0.625000 
Pt401	 0.694301	 0.745285	 0.625000 
Pt402	 0.650107	 0.821831	 0.625000 
Pt403	 0.633931	 0.761461	 0.687500 
Pt404	 0.573561	 0.777637	 0.625000 
Pt405	 0.589737	 0.838008	 0.687500 
Pt406	 0.529366	 0.854184	 0.625000 
Pt407	 0.513190	 0.793813	 0.687500 
Pt408	 0.452820	 0.809990	 0.625000 
Pt409	 0.605913	 0.898378	 0.625000 
Pt410	 0.520698	 0.338868	 0.750000 
Pt411	 0.444151	 0.294674	 0.750000 
Pt412	 0.460327	 0.355045	 0.812500 
Pt413	 0.399957	 0.371221	 0.750000 
Pt414	 0.673791	 0.427257	 0.750000 
Pt415	 0.597244	 0.383063	 0.750000 
Pt416	 0.613420	 0.443433	 0.812500 
Pt417	 0.553050	 0.459609	 0.750000 
Pt418	 0.536874	 0.399239	 0.812500 
Pt419	 0.476503	 0.415415	 0.750000 
Pt420	 0.492680	 0.475785	 0.812500 
Pt421	 0.432309	 0.491962	 0.750000 
Pt422	 0.416133	 0.431591	 0.812500 
Pt423	 0.355763	 0.447767	 0.750000 
Pt424	 0.371939	 0.508138	 0.812500 
Pt425	 0.311569	 0.524314	 0.750000 
Pt426	 0.750337	 0.471451	 0.750000 
Pt427	 0.706143	 0.547998	 0.750000 
Pt428	 0.689967	 0.487627	 0.812500 
Pt429	 0.629597	 0.503803	 0.750000 
Pt430	 0.645773	 0.564174	 0.812500 
Pt431	 0.585402	 0.580350	 0.750000 
Pt432	 0.569226	 0.519980	 0.812500 
Pt433	 0.508856	 0.536156	 0.750000 
Pt434	 0.525032	 0.596526	 0.812500 
Pt435	 0.464662	 0.612702	 0.750000 
Pt436	 0.448485	 0.552332	 0.812500 
Pt437	 0.388115	 0.568508	 0.750000 
Pt438	 0.404291	 0.628878	 0.812500 
Pt439	 0.343921	 0.645055	 0.750000 
Pt440	 0.327745	 0.584684	 0.812500 
Pt441	 0.267374	 0.600860	 0.750000 
Pt442	 0.661949	 0.624544	 0.750000 
Pt443	 0.617755	 0.701091	 0.750000 
Pt444	 0.601579	 0.640720	 0.812500 
Pt445	 0.541208	 0.656896	 0.750000 
Pt446	 0.557384	 0.717267	 0.812500 
Pt447	 0.497014	 0.733443	 0.750000 
Pt448	 0.480838	 0.673073	 0.812500 
Pt449	 0.420467	 0.689249	 0.750000 
Pt450	 0.573561	 0.777637	 0.750000 
Pt451	 0.553050	 0.459609	 0.875000 
Pt452	 0.476503	 0.415415	 0.875000 
Pt453	 0.432309	 0.491962	 0.875000 
Pt454	 0.629597	 0.503803	 0.875000 
Pt455	 0.585402	 0.580350	 0.875000 
Pt456	 0.508856	 0.536156	 0.875000 
Pt457	 0.464662	 0.612702	 0.875000 
Pt458	 0.388115	 0.568508	 0.875000 
Pt459	 0.541208	 0.656896	 0.875000 
#                 ---end-of-data-block---
