data_C:\Users\admin\Documents\atomsegmentation_bupt_fullsuite_3\misc\10978.cif
_cell_length_a               31.652800
_cell_length_b               31.652800
_cell_length_c               5.449400
_cell_angle_alpha          90.000000
_cell_angle_beta           90.000000
_cell_angle_gamma          90.000000
_symmetry_cell_setting          Triclinic
_symmetry_space_group_name_H-M 'P 1' 
loop_
_atom_site_label
_atom_site_fract_x
_atom_site_fract_y
_atom_site_fract_z
Sc1	 0.342555	 0.086329	 0.000000 
Sc2	 0.319143	 0.173702	 0.500000 
Sc3	 0.463296	 0.118682	 0.000000 
Sc4	 0.439884	 0.206054	 0.500000 
Dy5	 0.423494	 0.025740	 0.017200 
Dy6	 0.526508	 0.124251	 0.517200 
Dy7	 0.503097	 0.211623	 0.982800 
Dy8	 0.400083	 0.113112	 0.482800 
Sc9	 0.295732	 0.261075	 0.000000 
Sc10	 0.272320	 0.348447	 0.500000 
Sc11	 0.416473	 0.293427	 0.000000 
Sc12	 0.393061	 0.380800	 0.500000 
Dy13	 0.376672	 0.200485	 0.017200 
Dy14	 0.479685	 0.298996	 0.517200 
Dy15	 0.456274	 0.386369	 0.982800 
Dy16	 0.353260	 0.287858	 0.482800 
Sc17	 0.248909	 0.435820	 0.000000 
Sc18	 0.225498	 0.523193	 0.500000 
Sc19	 0.369650	 0.468172	 0.000000 
Sc20	 0.346238	 0.555545	 0.500000 
Dy21	 0.329849	 0.375230	 0.017200 
Dy22	 0.432862	 0.473741	 0.517200 
Dy23	 0.409451	 0.561114	 0.982800 
Dy24	 0.306437	 0.462603	 0.482800 
Sc25	 0.202086	 0.610565	 0.000000 
Sc26	 0.178675	 0.697938	 0.500000 
Sc27	 0.322827	 0.642918	 0.000000 
Sc28	 0.299415	 0.730290	 0.500000 
Dy29	 0.283026	 0.549976	 0.017200 
Dy30	 0.386039	 0.648487	 0.517200 
Dy31	 0.362628	 0.735860	 0.982800 
Dy32	 0.259614	 0.637349	 0.482800 
Sc33	 0.155263	 0.785311	 0.000000 
Sc34	 0.276004	 0.817663	 0.000000 
Sc35	 0.486707	 0.031309	 0.500000 
Dy36	 0.236203	 0.724721	 0.017200 
Dy37	 0.339216	 0.823232	 0.517200 
Dy38	 0.315805	 0.910605	 0.982800 
Dy39	 0.212791	 0.812094	 0.482800 
Sc40	 0.584036	 0.151034	 0.000000 
Sc41	 0.560625	 0.238407	 0.500000 
Sc42	 0.704777	 0.183386	 0.000000 
Sc43	 0.681366	 0.270759	 0.500000 
Dy44	 0.664976	 0.090444	 0.017200 
Dy45	 0.767989	 0.188955	 0.517200 
Dy46	 0.744578	 0.276328	 0.982800 
Dy47	 0.641564	 0.177817	 0.482800 
Sc48	 0.537213	 0.325779	 0.000000 
Sc49	 0.513802	 0.413152	 0.500000 
Sc50	 0.657954	 0.358132	 0.000000 
Sc51	 0.634543	 0.445504	 0.500000 
Dy52	 0.618153	 0.265190	 0.017200 
Dy53	 0.721167	 0.363701	 0.517200 
Dy54	 0.697755	 0.451074	 0.982800 
Dy55	 0.594742	 0.352563	 0.482800 
Sc56	 0.490390	 0.500525	 0.000000 
Sc57	 0.466979	 0.587897	 0.500000 
Sc58	 0.611131	 0.532877	 0.000000 
Sc59	 0.587720	 0.620250	 0.500000 
Dy60	 0.571330	 0.439935	 0.017200 
Dy61	 0.674344	 0.538446	 0.517200 
Dy62	 0.650932	 0.625819	 0.982800 
Dy63	 0.547919	 0.527308	 0.482800 
Sc64	 0.443568	 0.675270	 0.000000 
Sc65	 0.420156	 0.762643	 0.500000 
Sc66	 0.564308	 0.707622	 0.000000 
Sc67	 0.540897	 0.794995	 0.500000 
Dy68	 0.524507	 0.614681	 0.017200 
Dy69	 0.627521	 0.713192	 0.517200 
Dy70	 0.604109	 0.800564	 0.982800 
Dy71	 0.501096	 0.702053	 0.482800 
Sc72	 0.396745	 0.850015	 0.000000 
Sc73	 0.607448	 0.063661	 0.500000 
Sc74	 0.517485	 0.882368	 0.000000 
Sc75	 0.728188	 0.096014	 0.500000 
Dy76	 0.477684	 0.789426	 0.017200 
Dy77	 0.580698	 0.887937	 0.517200 
Dy78	 0.557286	 0.975310	 0.982800 
Dy79	 0.454273	 0.876799	 0.482800 
Sc80	 0.825518	 0.215739	 0.000000 
Sc81	 0.802106	 0.303111	 0.500000 
Sc82	 0.946258	 0.248091	 0.000000 
Sc83	 0.922847	 0.335464	 0.500000 
Dy84	 0.906457	 0.155149	 0.017200 
Dy85	 0.986059	 0.341033	 0.982800 
Dy86	 0.883046	 0.242522	 0.482800 
Sc87	 0.778695	 0.390484	 0.000000 
Sc88	 0.755283	 0.477857	 0.500000 
Sc89	 0.899436	 0.422836	 0.000000 
Sc90	 0.876024	 0.510209	 0.500000 
Dy91	 0.859634	 0.329895	 0.017200 
Dy92	 0.962648	 0.428406	 0.517200 
Dy93	 0.939237	 0.515778	 0.982800 
Dy94	 0.836223	 0.417267	 0.482800 
Sc95	 0.731872	 0.565229	 0.000000 
Sc96	 0.708460	 0.652602	 0.500000 
Sc97	 0.852613	 0.597582	 0.000000 
Sc98	 0.829201	 0.684955	 0.500000 
Dy99	 0.812812	 0.504640	 0.017200 
Dy100	 0.915825	 0.603151	 0.517200 
Dy101	 0.892414	 0.690524	 0.982800 
Dy102	 0.789400	 0.592013	 0.482800 
Sc103	 0.685049	 0.739975	 0.000000 
Sc104	 0.661638	 0.827348	 0.500000 
Sc105	 0.805790	 0.772327	 0.000000 
Sc106	 0.782378	 0.859700	 0.500000 
Dy107	 0.765989	 0.679385	 0.017200 
Dy108	 0.869002	 0.777896	 0.517200 
Dy109	 0.845591	 0.865269	 0.982800 
Dy110	 0.742577	 0.766758	 0.482800 
Sc111	 0.638226	 0.914720	 0.000000 
Sc112	 0.848929	 0.128366	 0.500000 
Sc113	 0.758967	 0.947073	 0.000000 
Sc114	 0.969670	 0.160718	 0.500000 
Dy115	 0.719166	 0.854131	 0.017200 
Dy116	 0.822179	 0.952642	 0.517200 
Dy117	 0.695754	 0.941503	 0.482800 
Sc118	 0.221814	 0.053977	 0.000000 
Sc119	 0.198403	 0.141349	 0.500000 
Dy120	 0.285027	 0.059546	 0.517200 
Dy121	 0.261615	 0.146919	 0.982800 
Dy122	 0.158602	 0.048408	 0.482800 
Sc123	 0.996765	 0.542562	 0.500000 
Sc124	 0.174991	 0.228722	 0.000000 
Sc125	 0.151580	 0.316095	 0.500000 
Dy126	 0.135190	 0.135780	 0.017200 
Dy127	 0.238204	 0.234291	 0.517200 
Dy128	 0.214792	 0.321664	 0.982800 
Dy129	 0.111779	 0.223153	 0.482800 
Sc130	 0.973353	 0.629934	 0.000000 
Sc131	 0.949942	 0.717307	 0.500000 
Sc132	 0.128168	 0.403468	 0.000000 
Sc133	 0.104757	 0.490840	 0.500000 
Dy134	 0.088367	 0.310526	 0.017200 
Dy135	 0.191381	 0.409037	 0.517200 
Dy136	 0.167969	 0.496409	 0.982800 
Dy137	 0.064956	 0.397898	 0.482800 
Sc138	 0.926530	 0.804680	 0.000000 
Sc139	 0.903119	 0.892052	 0.500000 
Sc140	 0.081345	 0.578213	 0.000000 
Sc141	 0.057934	 0.665586	 0.500000 
Dy142	 0.041544	 0.485271	 0.017200 
Dy143	 0.144558	 0.583782	 0.517200 
Dy144	 0.121146	 0.671155	 0.982800 
Dy145	 0.018133	 0.572644	 0.482800 
Sc146	 0.879708	 0.979425	 0.000000 
Sc147	 0.034523	 0.752958	 0.000000 
Dy148	 0.097735	 0.758527	 0.517200 
Dy149	 0.074324	 0.845900	 0.982800 
#                 ---end-of-data-block---
