data_C:\Users\admin\Documents\atomsegmentation_bupt_fullsuite_3\misc\10976.cif
_cell_length_a               31.652800
_cell_length_b               31.652800
_cell_length_c               5.449400
_cell_angle_alpha          90.000000
_cell_angle_beta           90.000000
_cell_angle_gamma          90.000000
_symmetry_cell_setting          Triclinic
_symmetry_space_group_name_H-M 'P 1' 
loop_
_atom_site_label
_atom_site_fract_x
_atom_site_fract_y
_atom_site_fract_z
Sc1	 0.143313	 0.032553	 0.000000 
Sc2	 0.119901	 0.119926	 0.500000 
Sc3	 0.264053	 0.064906	 0.000000 
Sc4	 0.240642	 0.152278	 0.500000 
Dy5	 0.327266	 0.070475	 0.517200 
Dy6	 0.303854	 0.157848	 0.982800 
Dy7	 0.200841	 0.059337	 0.482800 
Sc8	 0.096490	 0.207299	 0.000000 
Sc9	 0.073078	 0.294672	 0.500000 
Sc10	 0.217230	 0.239651	 0.000000 
Sc11	 0.193819	 0.327024	 0.500000 
Dy12	 0.177429	 0.146709	 0.017200 
Dy13	 0.280443	 0.245220	 0.517200 
Dy14	 0.257031	 0.332593	 0.982800 
Dy15	 0.154018	 0.234082	 0.482800 
Sc16	 0.049667	 0.382044	 0.000000 
Sc17	 0.026255	 0.469417	 0.500000 
Sc18	 0.170408	 0.414397	 0.000000 
Sc19	 0.146996	 0.501769	 0.500000 
Dy20	 0.130606	 0.321455	 0.017200 
Dy21	 0.233620	 0.419966	 0.517200 
Dy22	 0.210209	 0.507338	 0.982800 
Dy23	 0.107195	 0.408827	 0.482800 
Sc24	 0.002844	 0.556790	 0.000000 
Sc25	 0.123585	 0.589142	 0.000000 
Sc26	 0.100173	 0.676515	 0.500000 
Dy27	 0.083784	 0.496200	 0.017200 
Dy28	 0.186797	 0.594711	 0.517200 
Dy29	 0.163386	 0.682084	 0.982800 
Dy30	 0.060372	 0.583573	 0.482800 
Sc31	 0.076762	 0.763887	 0.000000 
Dy32	 0.036961	 0.670946	 0.017200 
Dy33	 0.139974	 0.769457	 0.517200 
Dy34	 0.116563	 0.856829	 0.982800 
Dy35	 0.013549	 0.758318	 0.482800 
Sc36	 0.384794	 0.097258	 0.000000 
Sc37	 0.361383	 0.184631	 0.500000 
Sc38	 0.505535	 0.129611	 0.000000 
Sc39	 0.482123	 0.216983	 0.500000 
Dy40	 0.465734	 0.036669	 0.017200 
Dy41	 0.568747	 0.135180	 0.517200 
Dy42	 0.545336	 0.222552	 0.982800 
Dy43	 0.442322	 0.124041	 0.482800 
Sc44	 0.337971	 0.272004	 0.000000 
Sc45	 0.314560	 0.359376	 0.500000 
Sc46	 0.458712	 0.304356	 0.000000 
Sc47	 0.435300	 0.391729	 0.500000 
Dy48	 0.418911	 0.211414	 0.017200 
Dy49	 0.521924	 0.309925	 0.517200 
Dy50	 0.498513	 0.397298	 0.982800 
Dy51	 0.395499	 0.298787	 0.482800 
Sc52	 0.291148	 0.446749	 0.000000 
Sc53	 0.267737	 0.534122	 0.500000 
Sc54	 0.411889	 0.479101	 0.000000 
Sc55	 0.388478	 0.566474	 0.500000 
Dy56	 0.372088	 0.386160	 0.017200 
Dy57	 0.475101	 0.484670	 0.517200 
Dy58	 0.451690	 0.572043	 0.982800 
Dy59	 0.348676	 0.473532	 0.482800 
Sc60	 0.244325	 0.621494	 0.000000 
Sc61	 0.220914	 0.708867	 0.500000 
Sc62	 0.365066	 0.653847	 0.000000 
Sc63	 0.341655	 0.741219	 0.500000 
Dy64	 0.325265	 0.560905	 0.017200 
Dy65	 0.428279	 0.659416	 0.517200 
Dy66	 0.404867	 0.746789	 0.982800 
Dy67	 0.301854	 0.648278	 0.482800 
Sc68	 0.197502	 0.796240	 0.000000 
Sc69	 0.408205	 0.009885	 0.500000 
Sc70	 0.318243	 0.828592	 0.000000 
Sc71	 0.528946	 0.042238	 0.500000 
Dy72	 0.278442	 0.735650	 0.017200 
Dy73	 0.381456	 0.834161	 0.517200 
Dy74	 0.358044	 0.921534	 0.982800 
Dy75	 0.255031	 0.823023	 0.482800 
Sc76	 0.626275	 0.161963	 0.000000 
Sc77	 0.602864	 0.249336	 0.500000 
Sc78	 0.747016	 0.194315	 0.000000 
Sc79	 0.723605	 0.281688	 0.500000 
Dy80	 0.707215	 0.101373	 0.017200 
Dy81	 0.810229	 0.199884	 0.517200 
Dy82	 0.786817	 0.287257	 0.982800 
Dy83	 0.683804	 0.188746	 0.482800 
Sc84	 0.579453	 0.336708	 0.000000 
Sc85	 0.556041	 0.424081	 0.500000 
Sc86	 0.700193	 0.369061	 0.000000 
Sc87	 0.676782	 0.456433	 0.500000 
Dy88	 0.660392	 0.276119	 0.017200 
Dy89	 0.763406	 0.374630	 0.517200 
Dy90	 0.739994	 0.462003	 0.982800 
Dy91	 0.636981	 0.363492	 0.482800 
Sc92	 0.532630	 0.511454	 0.000000 
Sc93	 0.509218	 0.598826	 0.500000 
Sc94	 0.653370	 0.543806	 0.000000 
Sc95	 0.629959	 0.631179	 0.500000 
Dy96	 0.613569	 0.450864	 0.017200 
Dy97	 0.716583	 0.549375	 0.517200 
Dy98	 0.693171	 0.636748	 0.982800 
Dy99	 0.590158	 0.538237	 0.482800 
Sc100	 0.485807	 0.686199	 0.000000 
Sc101	 0.462395	 0.773572	 0.500000 
Sc102	 0.606548	 0.718552	 0.000000 
Sc103	 0.583136	 0.805924	 0.500000 
Dy104	 0.566746	 0.625610	 0.017200 
Dy105	 0.669760	 0.724121	 0.517200 
Dy106	 0.646349	 0.811493	 0.982800 
Dy107	 0.543335	 0.712982	 0.482800 
Sc108	 0.438984	 0.860945	 0.000000 
Sc109	 0.649687	 0.074590	 0.500000 
Sc110	 0.559725	 0.893297	 0.000000 
Sc111	 0.770428	 0.106943	 0.500000 
Dy112	 0.519924	 0.800355	 0.017200 
Dy113	 0.622937	 0.898866	 0.517200 
Dy114	 0.599526	 0.986239	 0.982800 
Dy115	 0.496512	 0.887728	 0.482800 
Sc116	 0.867757	 0.226668	 0.000000 
Sc117	 0.844345	 0.314040	 0.500000 
Sc118	 0.988498	 0.259020	 0.000000 
Sc119	 0.965086	 0.346393	 0.500000 
Dy120	 0.948697	 0.166078	 0.017200 
Dy121	 0.925285	 0.253451	 0.482800 
Sc122	 0.820934	 0.401413	 0.000000 
Sc123	 0.797523	 0.488786	 0.500000 
Sc124	 0.941675	 0.433765	 0.000000 
Sc125	 0.918263	 0.521138	 0.500000 
Dy126	 0.901874	 0.340824	 0.017200 
Dy127	 0.981476	 0.526707	 0.982800 
Dy128	 0.878462	 0.428196	 0.482800 
Sc129	 0.774111	 0.576158	 0.000000 
Sc130	 0.750700	 0.663531	 0.500000 
Sc131	 0.894852	 0.608511	 0.000000 
Sc132	 0.871440	 0.695884	 0.500000 
Dy133	 0.855051	 0.515569	 0.017200 
Dy134	 0.958064	 0.614080	 0.517200 
Dy135	 0.934653	 0.701453	 0.982800 
Dy136	 0.831639	 0.602942	 0.482800 
Sc137	 0.727288	 0.750904	 0.000000 
Sc138	 0.703877	 0.838277	 0.500000 
Sc139	 0.848029	 0.783256	 0.000000 
Sc140	 0.824618	 0.870629	 0.500000 
Dy141	 0.808228	 0.690314	 0.017200 
Dy142	 0.911242	 0.788825	 0.517200 
Dy143	 0.887830	 0.876198	 0.982800 
Dy144	 0.784816	 0.777687	 0.482800 
Sc145	 0.680465	 0.925649	 0.000000 
Sc146	 0.891168	 0.139295	 0.500000 
Sc147	 0.801206	 0.958002	 0.000000 
Dy148	 0.761405	 0.865060	 0.017200 
Dy149	 0.864419	 0.963571	 0.517200 
Dy150	 0.737994	 0.952433	 0.482800 
#                 ---end-of-data-block---
