data_C:\Users\admin\Documents\atomsegmentation_bupt_fullsuite_3\misc\10979.cif
_cell_length_a               31.652800
_cell_length_b               31.652800
_cell_length_c               5.449400
_cell_angle_alpha          90.000000
_cell_angle_beta           90.000000
_cell_angle_gamma          90.000000
_symmetry_cell_setting          Triclinic
_symmetry_space_group_name_H-M 'P 1' 
loop_
_atom_site_label
_atom_site_fract_x
_atom_site_fract_y
_atom_site_fract_z
Sc1	 0.116710	 0.097044	 0.000000 
Sc2	 0.093298	 0.184417	 0.500000 
Sc3	 0.237451	 0.129397	 0.000000 
Sc4	 0.214039	 0.216769	 0.500000 
Dy5	 0.197650	 0.036455	 0.017200 
Dy6	 0.300663	 0.134966	 0.517200 
Dy7	 0.277252	 0.222339	 0.982800 
Dy8	 0.174238	 0.123828	 0.482800 
Sc9	 0.069887	 0.271790	 0.000000 
Sc10	 0.046476	 0.359162	 0.500000 
Sc11	 0.190628	 0.304142	 0.000000 
Sc12	 0.167216	 0.391515	 0.500000 
Dy13	 0.150827	 0.211200	 0.017200 
Dy14	 0.253840	 0.309711	 0.517200 
Dy15	 0.230429	 0.397084	 0.982800 
Dy16	 0.127415	 0.298573	 0.482800 
Sc17	 0.023064	 0.446535	 0.000000 
Sc18	 0.143805	 0.478888	 0.000000 
Sc19	 0.120393	 0.566260	 0.500000 
Dy20	 0.104004	 0.385946	 0.017200 
Dy21	 0.207017	 0.484457	 0.517200 
Dy22	 0.183606	 0.571829	 0.982800 
Dy23	 0.080592	 0.473318	 0.482800 
Sc24	 0.096982	 0.653633	 0.000000 
Sc25	 0.073571	 0.741006	 0.500000 
Dy26	 0.057181	 0.560691	 0.017200 
Dy27	 0.160194	 0.659202	 0.517200 
Dy28	 0.136783	 0.746575	 0.982800 
Dy29	 0.033769	 0.648064	 0.482800 
Sc30	 0.140121	 0.009672	 0.500000 
Sc31	 0.050159	 0.828378	 0.000000 
Sc32	 0.260862	 0.042024	 0.500000 
Dy33	 0.010358	 0.735436	 0.017200 
Dy34	 0.113372	 0.833947	 0.517200 
Dy35	 0.324075	 0.047593	 0.982800 
Sc36	 0.358191	 0.161749	 0.000000 
Sc37	 0.334780	 0.249122	 0.500000 
Sc38	 0.478932	 0.194102	 0.000000 
Sc39	 0.455521	 0.281474	 0.500000 
Dy40	 0.439131	 0.101160	 0.017200 
Dy41	 0.542145	 0.199671	 0.517200 
Dy42	 0.518733	 0.287043	 0.982800 
Dy43	 0.415720	 0.188532	 0.482800 
Sc44	 0.311368	 0.336495	 0.000000 
Sc45	 0.287957	 0.423867	 0.500000 
Sc46	 0.432109	 0.368847	 0.000000 
Sc47	 0.408698	 0.456220	 0.500000 
Dy48	 0.392308	 0.275905	 0.017200 
Dy49	 0.495322	 0.374416	 0.517200 
Dy50	 0.471910	 0.461789	 0.982800 
Dy51	 0.368897	 0.363278	 0.482800 
Sc52	 0.264546	 0.511240	 0.000000 
Sc53	 0.241134	 0.598613	 0.500000 
Sc54	 0.385286	 0.543592	 0.000000 
Sc55	 0.361875	 0.630965	 0.500000 
Dy56	 0.345485	 0.450650	 0.017200 
Dy57	 0.448499	 0.549161	 0.517200 
Dy58	 0.425087	 0.636534	 0.982800 
Dy59	 0.322074	 0.538023	 0.482800 
Sc60	 0.217723	 0.685985	 0.000000 
Sc61	 0.194311	 0.773358	 0.500000 
Sc62	 0.338463	 0.718338	 0.000000 
Sc63	 0.315052	 0.805710	 0.500000 
Dy64	 0.298662	 0.625396	 0.017200 
Dy65	 0.401676	 0.723907	 0.517200 
Dy66	 0.378265	 0.811280	 0.982800 
Dy67	 0.275251	 0.712769	 0.482800 
Sc68	 0.170900	 0.860731	 0.000000 
Sc69	 0.381603	 0.074376	 0.500000 
Sc70	 0.291641	 0.893083	 0.000000 
Sc71	 0.502344	 0.106729	 0.500000 
Dy72	 0.251839	 0.800141	 0.017200 
Dy73	 0.354853	 0.898652	 0.517200 
Dy74	 0.565556	 0.112298	 0.982800 
Dy75	 0.228428	 0.887514	 0.482800 
Sc76	 0.599673	 0.226454	 0.000000 
Sc77	 0.576261	 0.313827	 0.500000 
Sc78	 0.720414	 0.258806	 0.000000 
Sc79	 0.697002	 0.346179	 0.500000 
Dy80	 0.680612	 0.165864	 0.017200 
Dy81	 0.783626	 0.264375	 0.517200 
Dy82	 0.760215	 0.351748	 0.982800 
Dy83	 0.657201	 0.253237	 0.482800 
Sc84	 0.552850	 0.401199	 0.000000 
Sc85	 0.529438	 0.488572	 0.500000 
Sc86	 0.673591	 0.433552	 0.000000 
Sc87	 0.650179	 0.520924	 0.500000 
Dy88	 0.633790	 0.340610	 0.017200 
Dy89	 0.736803	 0.439121	 0.517200 
Dy90	 0.713392	 0.526494	 0.982800 
Dy91	 0.610378	 0.427983	 0.482800 
Sc92	 0.506027	 0.575945	 0.000000 
Sc93	 0.482616	 0.663317	 0.500000 
Sc94	 0.626768	 0.608297	 0.000000 
Sc95	 0.603356	 0.695670	 0.500000 
Dy96	 0.586967	 0.515355	 0.017200 
Dy97	 0.689980	 0.613866	 0.517200 
Dy98	 0.666569	 0.701239	 0.982800 
Dy99	 0.563555	 0.602728	 0.482800 
Sc100	 0.459204	 0.750690	 0.000000 
Sc101	 0.435793	 0.838063	 0.500000 
Sc102	 0.579945	 0.783042	 0.000000 
Sc103	 0.556533	 0.870415	 0.500000 
Dy104	 0.540144	 0.690101	 0.017200 
Dy105	 0.643157	 0.788612	 0.517200 
Dy106	 0.619746	 0.875984	 0.982800 
Dy107	 0.516732	 0.777473	 0.482800 
Sc108	 0.412381	 0.925435	 0.000000 
Sc109	 0.623084	 0.139081	 0.500000 
Sc110	 0.533122	 0.957788	 0.000000 
Sc111	 0.743825	 0.171434	 0.500000 
Dy112	 0.493321	 0.864846	 0.017200 
Dy113	 0.596335	 0.963357	 0.517200 
Dy114	 0.807038	 0.177003	 0.982800 
Dy115	 0.469909	 0.952219	 0.482800 
Sc116	 0.841154	 0.291159	 0.000000 
Sc117	 0.817743	 0.378531	 0.500000 
Sc118	 0.961895	 0.323511	 0.000000 
Sc119	 0.938484	 0.410884	 0.500000 
Dy120	 0.922094	 0.230569	 0.017200 
Dy121	 0.898682	 0.317942	 0.482800 
Sc122	 0.794331	 0.465904	 0.000000 
Sc123	 0.770920	 0.553277	 0.500000 
Sc124	 0.915072	 0.498256	 0.000000 
Sc125	 0.891661	 0.585629	 0.500000 
Dy126	 0.875271	 0.405315	 0.017200 
Dy127	 0.978285	 0.503826	 0.517200 
Dy128	 0.954873	 0.591198	 0.982800 
Dy129	 0.851860	 0.492687	 0.482800 
Sc130	 0.747509	 0.640649	 0.000000 
Sc131	 0.724097	 0.728022	 0.500000 
Sc132	 0.868249	 0.673002	 0.000000 
Sc133	 0.844838	 0.760375	 0.500000 
Dy134	 0.828448	 0.580060	 0.017200 
Dy135	 0.931462	 0.678571	 0.517200 
Dy136	 0.908050	 0.765944	 0.982800 
Dy137	 0.805037	 0.667433	 0.482800 
Sc138	 0.700686	 0.815395	 0.000000 
Sc139	 0.677274	 0.902768	 0.500000 
Sc140	 0.821426	 0.847747	 0.000000 
Sc141	 0.798015	 0.935120	 0.500000 
Dy142	 0.781625	 0.754805	 0.017200 
Dy143	 0.884639	 0.853316	 0.517200 
Dy144	 0.861227	 0.940689	 0.982800 
Dy145	 0.758214	 0.842178	 0.482800 
Sc146	 0.653863	 0.990140	 0.000000 
Sc147	 0.864566	 0.203786	 0.500000 
Sc148	 0.985306	 0.236138	 0.500000 
Dy149	 0.734802	 0.929551	 0.017200 
#                 ---end-of-data-block---
