data_C:\Users\admin\Documents\atomsegmentation_bupt_fullsuite_3\misc\10985.cif
_cell_length_a               31.652800
_cell_length_b               31.652800
_cell_length_c               5.449400
_cell_angle_alpha          90.000000
_cell_angle_beta           90.000000
_cell_angle_gamma          90.000000
_symmetry_cell_setting          Triclinic
_symmetry_space_group_name_H-M 'P 1' 
loop_
_atom_site_label
_atom_site_fract_x
_atom_site_fract_y
_atom_site_fract_z
Sc1	 0.247350	 0.060662	 0.500000 
Sc2	 0.400830	 0.044826	 0.000000 
Sc3	 0.355603	 0.123162	 0.500000 
Dy4	 0.460447	 0.066566	 0.517200 
Dy5	 0.415220	 0.144902	 0.982800 
Dy6	 0.341213	 0.023086	 0.482800 
Sc7	 0.202122	 0.138998	 0.000000 
Sc8	 0.156895	 0.217334	 0.500000 
Sc9	 0.310375	 0.201498	 0.000000 
Sc10	 0.265148	 0.279834	 0.500000 
Dy11	 0.295986	 0.101422	 0.017200 
Dy12	 0.369992	 0.223238	 0.517200 
Dy13	 0.324765	 0.301574	 0.982800 
Dy14	 0.250758	 0.179758	 0.482800 
Sc15	 0.111667	 0.295671	 0.000000 
Sc16	 0.066440	 0.374007	 0.500000 
Sc17	 0.219920	 0.358171	 0.000000 
Sc18	 0.174693	 0.436507	 0.500000 
Dy19	 0.205531	 0.258095	 0.017200 
Dy20	 0.279538	 0.379911	 0.517200 
Dy21	 0.234310	 0.458247	 0.982800 
Dy22	 0.160303	 0.336431	 0.482800 
Sc23	 0.021212	 0.452343	 0.000000 
Sc24	 0.129466	 0.514843	 0.000000 
Sc25	 0.084238	 0.593179	 0.500000 
Dy26	 0.115076	 0.414767	 0.017200 
Dy27	 0.189083	 0.536583	 0.517200 
Dy28	 0.143855	 0.614919	 0.982800 
Dy29	 0.069848	 0.493103	 0.482800 
Sc30	 0.039011	 0.671516	 0.000000 
Dy31	 0.024621	 0.571439	 0.017200 
Dy32	 0.098628	 0.693256	 0.517200 
Sc33	 0.509083	 0.107326	 0.000000 
Sc34	 0.463856	 0.185662	 0.500000 
Sc35	 0.617336	 0.169826	 0.000000 
Sc36	 0.572109	 0.248162	 0.500000 
Dy37	 0.602947	 0.069750	 0.017200 
Dy38	 0.676954	 0.191566	 0.517200 
Dy39	 0.631726	 0.269902	 0.982800 
Dy40	 0.557719	 0.148086	 0.482800 
Sc41	 0.418628	 0.263998	 0.000000 
Sc42	 0.373401	 0.342334	 0.500000 
Sc43	 0.526882	 0.326498	 0.000000 
Sc44	 0.481654	 0.404834	 0.500000 
Dy45	 0.512492	 0.226422	 0.017200 
Dy46	 0.586499	 0.348238	 0.517200 
Dy47	 0.541271	 0.426574	 0.982800 
Dy48	 0.467264	 0.304758	 0.482800 
Sc49	 0.328174	 0.420671	 0.000000 
Sc50	 0.282946	 0.499007	 0.500000 
Sc51	 0.436427	 0.483171	 0.000000 
Sc52	 0.391199	 0.561507	 0.500000 
Dy53	 0.422037	 0.383095	 0.017200 
Dy54	 0.496044	 0.504911	 0.517200 
Dy55	 0.450817	 0.583247	 0.982800 
Dy56	 0.376810	 0.461431	 0.482800 
Sc57	 0.237719	 0.577343	 0.000000 
Sc58	 0.192491	 0.655679	 0.500000 
Sc59	 0.345972	 0.639843	 0.000000 
Sc60	 0.300744	 0.718179	 0.500000 
Dy61	 0.331582	 0.539767	 0.017200 
Dy62	 0.405589	 0.661583	 0.517200 
Dy63	 0.360362	 0.739919	 0.982800 
Dy64	 0.286355	 0.618103	 0.482800 
Sc65	 0.147264	 0.734016	 0.000000 
Sc66	 0.554311	 0.028990	 0.500000 
Sc67	 0.255517	 0.796516	 0.000000 
Sc68	 0.662564	 0.091490	 0.500000 
Dy69	 0.241127	 0.696439	 0.017200 
Dy70	 0.315134	 0.818256	 0.517200 
Dy71	 0.722181	 0.113230	 0.982800 
Dy72	 0.195900	 0.774776	 0.482800 
Sc73	 0.725590	 0.232326	 0.000000 
Sc74	 0.680362	 0.310662	 0.500000 
Sc75	 0.833843	 0.294826	 0.000000 
Sc76	 0.788615	 0.373162	 0.500000 
Dy77	 0.819453	 0.194750	 0.017200 
Dy78	 0.893460	 0.316566	 0.517200 
Dy79	 0.848233	 0.394902	 0.982800 
Dy80	 0.774226	 0.273086	 0.482800 
Sc81	 0.635135	 0.388998	 0.000000 
Sc82	 0.589907	 0.467334	 0.500000 
Sc83	 0.743388	 0.451498	 0.000000 
Sc84	 0.698161	 0.529834	 0.500000 
Dy85	 0.728998	 0.351422	 0.017200 
Dy86	 0.803005	 0.473238	 0.517200 
Dy87	 0.757778	 0.551574	 0.982800 
Dy88	 0.683771	 0.429758	 0.482800 
Sc89	 0.544680	 0.545671	 0.000000 
Sc90	 0.499452	 0.624007	 0.500000 
Sc91	 0.652933	 0.608171	 0.000000 
Sc92	 0.607706	 0.686507	 0.500000 
Dy93	 0.638543	 0.508095	 0.017200 
Dy94	 0.712550	 0.629911	 0.517200 
Dy95	 0.667323	 0.708247	 0.982800 
Dy96	 0.593316	 0.586431	 0.482800 
Sc97	 0.454225	 0.702343	 0.000000 
Sc98	 0.408998	 0.780679	 0.500000 
Sc99	 0.562478	 0.764843	 0.000000 
Sc100	 0.517251	 0.843179	 0.500000 
Dy101	 0.548088	 0.664767	 0.017200 
Dy102	 0.622095	 0.786583	 0.517200 
Dy103	 0.576868	 0.864919	 0.982800 
Dy104	 0.502861	 0.743103	 0.482800 
Sc105	 0.363770	 0.859016	 0.000000 
Sc106	 0.770817	 0.153990	 0.500000 
Sc107	 0.472023	 0.921516	 0.000000 
Sc108	 0.879070	 0.216490	 0.500000 
Dy109	 0.457634	 0.821439	 0.017200 
Dy110	 0.531641	 0.943256	 0.517200 
Dy111	 0.938687	 0.238230	 0.982800 
Dy112	 0.412406	 0.899776	 0.482800 
Sc113	 0.942096	 0.357326	 0.000000 
Sc114	 0.896869	 0.435662	 0.500000 
Dy115	 0.990732	 0.398086	 0.482800 
Sc116	 0.851641	 0.513998	 0.000000 
Sc117	 0.806414	 0.592334	 0.500000 
Sc118	 0.959894	 0.576498	 0.000000 
Sc119	 0.914667	 0.654834	 0.500000 
Dy120	 0.945505	 0.476422	 0.017200 
Dy121	 0.974284	 0.676574	 0.982800 
Dy122	 0.900277	 0.554758	 0.482800 
Sc123	 0.761186	 0.670671	 0.000000 
Sc124	 0.715959	 0.749007	 0.500000 
Sc125	 0.869439	 0.733171	 0.000000 
Sc126	 0.824212	 0.811507	 0.500000 
Dy127	 0.855050	 0.633095	 0.017200 
Dy128	 0.929057	 0.754911	 0.517200 
Dy129	 0.883829	 0.833247	 0.982800 
Dy130	 0.809822	 0.711431	 0.482800 
Sc131	 0.670731	 0.827343	 0.000000 
Sc132	 0.625504	 0.905679	 0.500000 
Sc133	 0.778985	 0.889843	 0.000000 
Sc134	 0.733757	 0.968179	 0.500000 
Dy135	 0.764595	 0.789767	 0.017200 
Dy136	 0.838602	 0.911583	 0.517200 
Dy137	 0.793374	 0.989919	 0.982800 
Dy138	 0.719367	 0.868103	 0.482800 
Sc139	 0.580277	 0.984016	 0.000000 
Sc140	 0.987323	 0.278990	 0.500000 
Dy141	 0.674140	 0.946439	 0.017200 
#                 ---end-of-data-block---
