data_C:\Users\admin\Documents\atomsegmentation_bupt_fullsuite_3\misc\10989.cif
_cell_length_a               31.652800
_cell_length_b               31.652800
_cell_length_c               5.449400
_cell_angle_alpha          90.000000
_cell_angle_beta           90.000000
_cell_angle_gamma          90.000000
_symmetry_cell_setting          Triclinic
_symmetry_space_group_name_H-M 'P 1' 
loop_
_atom_site_label
_atom_site_fract_x
_atom_site_fract_y
_atom_site_fract_z
Sc1	 0.327567	 0.111073	 0.000000 
Sc2	 0.282339	 0.189410	 0.500000 
Sc3	 0.435820	 0.173573	 0.000000 
Sc4	 0.390593	 0.251910	 0.500000 
Dy5	 0.421430	 0.073497	 0.017200 
Dy6	 0.495437	 0.195313	 0.517200 
Dy7	 0.450210	 0.273649	 0.982800 
Dy8	 0.376203	 0.151833	 0.482800 
Sc9	 0.237112	 0.267746	 0.000000 
Sc10	 0.191884	 0.346082	 0.500000 
Sc11	 0.345365	 0.330246	 0.000000 
Sc12	 0.300138	 0.408582	 0.500000 
Dy13	 0.330975	 0.230170	 0.017200 
Dy14	 0.404982	 0.351986	 0.517200 
Dy15	 0.359755	 0.430322	 0.982800 
Dy16	 0.285748	 0.308506	 0.482800 
Sc17	 0.146657	 0.424418	 0.000000 
Sc18	 0.101430	 0.502754	 0.500000 
Sc19	 0.254910	 0.486918	 0.000000 
Sc20	 0.209683	 0.565254	 0.500000 
Dy21	 0.240520	 0.386842	 0.017200 
Dy22	 0.314527	 0.508658	 0.517200 
Dy23	 0.269300	 0.586994	 0.982800 
Dy24	 0.195293	 0.465178	 0.482800 
Sc25	 0.056202	 0.581091	 0.000000 
Sc26	 0.010975	 0.659427	 0.500000 
Sc27	 0.164455	 0.643591	 0.000000 
Sc28	 0.119228	 0.721927	 0.500000 
Dy29	 0.150066	 0.543514	 0.017200 
Dy30	 0.224073	 0.665331	 0.517200 
Dy31	 0.178845	 0.743667	 0.982800 
Dy32	 0.104838	 0.621851	 0.482800 
Sc33	 0.372794	 0.032737	 0.500000 
Sc34	 0.526275	 0.016901	 0.000000 
Sc35	 0.481047	 0.095237	 0.500000 
Dy36	 0.059611	 0.700187	 0.017200 
Dy37	 0.585892	 0.038641	 0.517200 
Dy38	 0.540665	 0.116977	 0.982800 
Sc39	 0.544073	 0.236073	 0.000000 
Sc40	 0.498846	 0.314410	 0.500000 
Sc41	 0.652326	 0.298573	 0.000000 
Sc42	 0.607099	 0.376910	 0.500000 
Dy43	 0.637937	 0.198497	 0.017200 
Dy44	 0.711943	 0.320313	 0.517200 
Dy45	 0.666716	 0.398649	 0.982800 
Dy46	 0.592709	 0.276833	 0.482800 
Sc47	 0.453618	 0.392746	 0.000000 
Sc48	 0.408391	 0.471082	 0.500000 
Sc49	 0.561871	 0.455246	 0.000000 
Sc50	 0.516644	 0.533582	 0.500000 
Dy51	 0.547482	 0.355170	 0.017200 
Dy52	 0.621489	 0.476986	 0.517200 
Dy53	 0.576261	 0.555322	 0.982800 
Dy54	 0.502254	 0.433506	 0.482800 
Sc55	 0.363163	 0.549418	 0.000000 
Sc56	 0.317936	 0.627754	 0.500000 
Sc57	 0.471417	 0.611918	 0.000000 
Sc58	 0.426189	 0.690254	 0.500000 
Dy59	 0.457027	 0.511842	 0.017200 
Dy60	 0.531034	 0.633658	 0.517200 
Dy61	 0.485806	 0.711994	 0.982800 
Dy62	 0.411799	 0.590178	 0.482800 
Sc63	 0.272708	 0.706091	 0.000000 
Sc64	 0.227481	 0.784427	 0.500000 
Sc65	 0.380962	 0.768591	 0.000000 
Sc66	 0.335734	 0.846927	 0.500000 
Dy67	 0.366572	 0.668514	 0.017200 
Dy68	 0.440579	 0.790331	 0.517200 
Dy69	 0.395351	 0.868667	 0.982800 
Dy70	 0.321344	 0.746851	 0.482800 
Sc71	 0.634528	 0.079401	 0.000000 
Sc72	 0.589301	 0.157737	 0.500000 
Sc73	 0.742781	 0.141901	 0.000000 
Sc74	 0.697554	 0.220237	 0.500000 
Dy75	 0.276117	 0.825187	 0.017200 
Dy76	 0.802398	 0.163641	 0.517200 
Dy77	 0.757171	 0.241977	 0.982800 
Dy78	 0.683164	 0.120161	 0.482800 
Sc79	 0.760579	 0.361073	 0.000000 
Sc80	 0.715352	 0.439410	 0.500000 
Sc81	 0.868833	 0.423573	 0.000000 
Sc82	 0.823605	 0.501910	 0.500000 
Dy83	 0.854443	 0.323497	 0.017200 
Dy84	 0.928450	 0.445313	 0.517200 
Dy85	 0.883222	 0.523649	 0.982800 
Dy86	 0.809215	 0.401833	 0.482800 
Sc87	 0.670125	 0.517746	 0.000000 
Sc88	 0.624897	 0.596082	 0.500000 
Sc89	 0.778378	 0.580246	 0.000000 
Sc90	 0.733150	 0.658582	 0.500000 
Dy91	 0.763988	 0.480170	 0.017200 
Dy92	 0.837995	 0.601986	 0.517200 
Dy93	 0.792768	 0.680322	 0.982800 
Dy94	 0.718761	 0.558506	 0.482800 
Sc95	 0.579670	 0.674418	 0.000000 
Sc96	 0.534442	 0.752754	 0.500000 
Sc97	 0.687923	 0.736918	 0.000000 
Sc98	 0.642695	 0.815254	 0.500000 
Dy99	 0.673533	 0.636842	 0.017200 
Dy100	 0.747540	 0.758658	 0.517200 
Dy101	 0.702313	 0.836994	 0.982800 
Dy102	 0.628306	 0.715178	 0.482800 
Sc103	 0.489215	 0.831091	 0.000000 
Sc104	 0.443987	 0.909427	 0.500000 
Sc105	 0.597468	 0.893591	 0.000000 
Sc106	 0.552241	 0.971927	 0.500000 
Dy107	 0.583078	 0.793514	 0.017200 
Dy108	 0.657085	 0.915331	 0.517200 
Dy109	 0.611858	 0.993667	 0.982800 
Dy110	 0.537851	 0.871851	 0.482800 
Sc111	 0.851034	 0.204401	 0.000000 
Sc112	 0.805807	 0.282737	 0.500000 
Sc113	 0.959288	 0.266901	 0.000000 
Sc114	 0.914060	 0.345237	 0.500000 
Dy115	 0.492623	 0.950187	 0.017200 
Dy116	 0.973677	 0.366977	 0.982800 
Dy117	 0.899670	 0.245161	 0.482800 
Sc118	 0.977086	 0.486073	 0.000000 
Sc119	 0.931858	 0.564410	 0.500000 
Sc120	 0.219314	 0.048573	 0.000000 
Sc121	 0.174086	 0.126910	 0.500000 
Dy122	 0.278931	 0.070313	 0.517200 
Dy123	 0.233703	 0.148649	 0.982800 
Sc124	 0.886631	 0.642746	 0.000000 
Sc125	 0.841404	 0.721082	 0.500000 
Sc126	 0.128859	 0.205246	 0.000000 
Sc127	 0.083631	 0.283582	 0.500000 
Dy128	 0.980494	 0.605170	 0.017200 
Dy129	 0.188476	 0.226986	 0.517200 
Dy130	 0.143248	 0.305322	 0.982800 
Dy131	 0.935267	 0.683506	 0.482800 
Sc132	 0.796176	 0.799418	 0.000000 
Sc133	 0.750949	 0.877754	 0.500000 
Sc134	 0.038404	 0.361918	 0.000000 
Dy135	 0.890039	 0.761842	 0.017200 
Dy136	 0.098021	 0.383658	 0.517200 
Dy137	 0.052794	 0.461994	 0.982800 
Dy138	 0.844812	 0.840178	 0.482800 
Sc139	 0.705721	 0.956091	 0.000000 
Dy140	 0.799585	 0.918514	 0.017200 
Dy141	 0.007566	 0.540331	 0.517200 
Dy142	 0.754357	 0.996851	 0.482800 
#                 ---end-of-data-block---
