data_C:\Users\admin\Documents\atomsegmentation_bupt_fullsuite_3\misc\10986.cif
_cell_length_a               31.652800
_cell_length_b               31.652800
_cell_length_c               5.449400
_cell_angle_alpha          90.000000
_cell_angle_beta           90.000000
_cell_angle_gamma          90.000000
_symmetry_cell_setting          Triclinic
_symmetry_space_group_name_H-M 'P 1' 
loop_
_atom_site_label
_atom_site_fract_x
_atom_site_fract_y
_atom_site_fract_z
Sc1	 0.305326	 0.152983	 0.000000 
Sc2	 0.260099	 0.231320	 0.500000 
Sc3	 0.413579	 0.215483	 0.000000 
Sc4	 0.368352	 0.293820	 0.500000 
Dy5	 0.399190	 0.115407	 0.017200 
Dy6	 0.473197	 0.237223	 0.517200 
Dy7	 0.427969	 0.315560	 0.982800 
Dy8	 0.353962	 0.193743	 0.482800 
Sc9	 0.214871	 0.309656	 0.000000 
Sc10	 0.169644	 0.387992	 0.500000 
Sc11	 0.323125	 0.372156	 0.000000 
Sc12	 0.277897	 0.450492	 0.500000 
Dy13	 0.308735	 0.272080	 0.017200 
Dy14	 0.382742	 0.393896	 0.517200 
Dy15	 0.337514	 0.472232	 0.982800 
Dy16	 0.263507	 0.350416	 0.482800 
Sc17	 0.124416	 0.466328	 0.000000 
Sc18	 0.079189	 0.544665	 0.500000 
Sc19	 0.232670	 0.528828	 0.000000 
Sc20	 0.187442	 0.607165	 0.500000 
Dy21	 0.218280	 0.428752	 0.017200 
Dy22	 0.292287	 0.550568	 0.517200 
Dy23	 0.247059	 0.628904	 0.982800 
Dy24	 0.173052	 0.507088	 0.482800 
Sc25	 0.033962	 0.623001	 0.000000 
Sc26	 0.142215	 0.685501	 0.000000 
Sc27	 0.096987	 0.763837	 0.500000 
Dy28	 0.127825	 0.585425	 0.017200 
Dy29	 0.201832	 0.707241	 0.517200 
Dy30	 0.156605	 0.785577	 0.982800 
Dy31	 0.082598	 0.663761	 0.482800 
Sc32	 0.350554	 0.074647	 0.500000 
Sc33	 0.504034	 0.058811	 0.000000 
Sc34	 0.458807	 0.137147	 0.500000 
Dy35	 0.037370	 0.742097	 0.017200 
Dy36	 0.563651	 0.080551	 0.517200 
Dy37	 0.518424	 0.158887	 0.982800 
Dy38	 0.444417	 0.037071	 0.482800 
Sc39	 0.521833	 0.277983	 0.000000 
Sc40	 0.476605	 0.356320	 0.500000 
Sc41	 0.630086	 0.340483	 0.000000 
Sc42	 0.584858	 0.418820	 0.500000 
Dy43	 0.615696	 0.240407	 0.017200 
Dy44	 0.689703	 0.362223	 0.517200 
Dy45	 0.644476	 0.440560	 0.982800 
Dy46	 0.570469	 0.318743	 0.482800 
Sc47	 0.431378	 0.434656	 0.000000 
Sc48	 0.386150	 0.512992	 0.500000 
Sc49	 0.539631	 0.497156	 0.000000 
Sc50	 0.494403	 0.575492	 0.500000 
Dy51	 0.525241	 0.397080	 0.017200 
Dy52	 0.599248	 0.518896	 0.517200 
Dy53	 0.554021	 0.597232	 0.982800 
Dy54	 0.480014	 0.475416	 0.482800 
Sc55	 0.340923	 0.591328	 0.000000 
Sc56	 0.295695	 0.669665	 0.500000 
Sc57	 0.449176	 0.653828	 0.000000 
Sc58	 0.403949	 0.732165	 0.500000 
Dy59	 0.434786	 0.553752	 0.017200 
Dy60	 0.508793	 0.675568	 0.517200 
Dy61	 0.463566	 0.753904	 0.982800 
Dy62	 0.389559	 0.632088	 0.482800 
Sc63	 0.250468	 0.748001	 0.000000 
Sc64	 0.205241	 0.826337	 0.500000 
Sc65	 0.358721	 0.810501	 0.000000 
Sc66	 0.313494	 0.888837	 0.500000 
Dy67	 0.344331	 0.710425	 0.017200 
Dy68	 0.418338	 0.832241	 0.517200 
Dy69	 0.373111	 0.910577	 0.982800 
Dy70	 0.299104	 0.788761	 0.482800 
Sc71	 0.612287	 0.121311	 0.000000 
Sc72	 0.567060	 0.199647	 0.500000 
Sc73	 0.720541	 0.183811	 0.000000 
Sc74	 0.675313	 0.262147	 0.500000 
Dy75	 0.253876	 0.867097	 0.017200 
Dy76	 0.780158	 0.205551	 0.517200 
Dy77	 0.734930	 0.283887	 0.982800 
Dy78	 0.660923	 0.162071	 0.482800 
Sc79	 0.738339	 0.402983	 0.000000 
Sc80	 0.693111	 0.481320	 0.500000 
Sc81	 0.846592	 0.465483	 0.000000 
Sc82	 0.801365	 0.543820	 0.500000 
Dy83	 0.832202	 0.365407	 0.017200 
Dy84	 0.906209	 0.487223	 0.517200 
Dy85	 0.860982	 0.565560	 0.982800 
Dy86	 0.786975	 0.443743	 0.482800 
Sc87	 0.647884	 0.559656	 0.000000 
Sc88	 0.602657	 0.637992	 0.500000 
Sc89	 0.756137	 0.622156	 0.000000 
Sc90	 0.710910	 0.700492	 0.500000 
Dy91	 0.741747	 0.522080	 0.017200 
Dy92	 0.815754	 0.643896	 0.517200 
Dy93	 0.770527	 0.722232	 0.982800 
Dy94	 0.696520	 0.600416	 0.482800 
Sc95	 0.557429	 0.716328	 0.000000 
Sc96	 0.512202	 0.794665	 0.500000 
Sc97	 0.665682	 0.778828	 0.000000 
Sc98	 0.620455	 0.857165	 0.500000 
Dy99	 0.651293	 0.678752	 0.017200 
Dy100	 0.725300	 0.800568	 0.517200 
Dy101	 0.680072	 0.878904	 0.982800 
Dy102	 0.606065	 0.757088	 0.482800 
Sc103	 0.466974	 0.873001	 0.000000 
Sc104	 0.421747	 0.951337	 0.500000 
Sc105	 0.575227	 0.935501	 0.000000 
Dy106	 0.560838	 0.835425	 0.017200 
Dy107	 0.634845	 0.957241	 0.517200 
Dy108	 0.515610	 0.913761	 0.482800 
Sc109	 0.828794	 0.246311	 0.000000 
Sc110	 0.783566	 0.324647	 0.500000 
Sc111	 0.937047	 0.308811	 0.000000 
Sc112	 0.891820	 0.387147	 0.500000 
Dy113	 0.470383	 0.992097	 0.017200 
Dy114	 0.996664	 0.330551	 0.517200 
Dy115	 0.951437	 0.408887	 0.982800 
Dy116	 0.877430	 0.287071	 0.482800 
Sc117	 0.954845	 0.527983	 0.000000 
Sc118	 0.909618	 0.606320	 0.500000 
Sc119	 0.197073	 0.090483	 0.000000 
Sc120	 0.151846	 0.168820	 0.500000 
Dy121	 0.256690	 0.112223	 0.517200 
Dy122	 0.211463	 0.190560	 0.982800 
Sc123	 0.864390	 0.684656	 0.000000 
Sc124	 0.819163	 0.762992	 0.500000 
Sc125	 0.106618	 0.247156	 0.000000 
Sc126	 0.061391	 0.325492	 0.500000 
Dy127	 0.958254	 0.647080	 0.017200 
Dy128	 0.166235	 0.268896	 0.517200 
Dy129	 0.121008	 0.347232	 0.982800 
Dy130	 0.913026	 0.725416	 0.482800 
Sc131	 0.773936	 0.841328	 0.000000 
Sc132	 0.728708	 0.919665	 0.500000 
Sc133	 0.016163	 0.403828	 0.000000 
Dy134	 0.867799	 0.803752	 0.017200 
Dy135	 0.075780	 0.425568	 0.517200 
Dy136	 0.030553	 0.503904	 0.982800 
Dy137	 0.822572	 0.882088	 0.482800 
Sc138	 0.683481	 0.998001	 0.000000 
Dy139	 0.777344	 0.960425	 0.017200 
Sc140	 0.242300	 0.012147	 0.500000 
Dy141	 0.301918	 0.033887	 0.982800 
#                 ---end-of-data-block---
