data_C:\Users\admin\Documents\atomsegmentation_bupt_fullsuite_3\misc\10987.cif
_cell_length_a               31.652800
_cell_length_b               31.652800
_cell_length_c               5.449400
_cell_angle_alpha          90.000000
_cell_angle_beta           90.000000
_cell_angle_gamma          90.000000
_symmetry_cell_setting          Triclinic
_symmetry_space_group_name_H-M 'P 1' 
loop_
_atom_site_label
_atom_site_fract_x
_atom_site_fract_y
_atom_site_fract_z
Sc1	 0.213541	 0.066435	 0.500000 
Sc2	 0.367022	 0.050599	 0.000000 
Sc3	 0.321794	 0.128935	 0.500000 
Dy4	 0.426639	 0.072339	 0.517200 
Dy5	 0.381411	 0.150675	 0.982800 
Dy6	 0.307404	 0.028859	 0.482800 
Sc7	 0.168314	 0.144771	 0.000000 
Sc8	 0.123086	 0.223108	 0.500000 
Sc9	 0.276567	 0.207271	 0.000000 
Sc10	 0.231339	 0.285608	 0.500000 
Dy11	 0.262177	 0.107195	 0.017200 
Dy12	 0.336184	 0.229011	 0.517200 
Dy13	 0.290956	 0.307348	 0.982800 
Dy14	 0.216950	 0.185532	 0.482800 
Sc15	 0.077859	 0.301444	 0.000000 
Sc16	 0.032631	 0.379780	 0.500000 
Sc17	 0.186112	 0.363944	 0.000000 
Sc18	 0.140884	 0.442280	 0.500000 
Dy19	 0.171722	 0.263868	 0.017200 
Dy20	 0.245729	 0.385684	 0.517200 
Dy21	 0.200502	 0.464020	 0.982800 
Dy22	 0.126495	 0.342204	 0.482800 
Sc23	 0.095657	 0.520616	 0.000000 
Sc24	 0.050430	 0.598953	 0.500000 
Dy25	 0.081267	 0.420540	 0.017200 
Dy26	 0.155274	 0.542356	 0.517200 
Dy27	 0.110047	 0.620693	 0.982800 
Dy28	 0.036040	 0.498876	 0.482800 
Sc29	 0.005202	 0.677289	 0.000000 
Dy30	 0.064819	 0.699029	 0.517200 
Sc31	 0.475275	 0.113099	 0.000000 
Sc32	 0.430047	 0.191435	 0.500000 
Sc33	 0.583528	 0.175599	 0.000000 
Sc34	 0.538301	 0.253935	 0.500000 
Dy35	 0.569138	 0.075523	 0.017200 
Dy36	 0.643145	 0.197339	 0.517200 
Dy37	 0.597918	 0.275675	 0.982800 
Dy38	 0.523911	 0.153859	 0.482800 
Sc39	 0.384820	 0.269771	 0.000000 
Sc40	 0.339592	 0.348108	 0.500000 
Sc41	 0.493073	 0.332271	 0.000000 
Sc42	 0.447846	 0.410608	 0.500000 
Dy43	 0.478683	 0.232195	 0.017200 
Dy44	 0.552690	 0.354011	 0.517200 
Dy45	 0.507463	 0.432348	 0.982800 
Dy46	 0.433456	 0.310532	 0.482800 
Sc47	 0.294365	 0.426444	 0.000000 
Sc48	 0.249138	 0.504780	 0.500000 
Sc49	 0.402618	 0.488944	 0.000000 
Sc50	 0.357391	 0.567280	 0.500000 
Dy51	 0.388228	 0.388868	 0.017200 
Dy52	 0.462235	 0.510684	 0.517200 
Dy53	 0.417008	 0.589020	 0.982800 
Dy54	 0.343001	 0.467204	 0.482800 
Sc55	 0.203910	 0.583116	 0.000000 
Sc56	 0.158683	 0.661453	 0.500000 
Sc57	 0.312163	 0.645616	 0.000000 
Sc58	 0.266936	 0.723953	 0.500000 
Dy59	 0.297774	 0.545540	 0.017200 
Dy60	 0.371781	 0.667356	 0.517200 
Dy61	 0.326553	 0.745693	 0.982800 
Dy62	 0.252546	 0.623876	 0.482800 
Sc63	 0.113455	 0.739789	 0.000000 
Sc64	 0.520502	 0.034763	 0.500000 
Sc65	 0.221708	 0.802289	 0.000000 
Sc66	 0.628755	 0.097263	 0.500000 
Dy67	 0.207319	 0.702213	 0.017200 
Dy68	 0.281326	 0.824029	 0.517200 
Dy69	 0.688373	 0.119003	 0.982800 
Dy70	 0.162091	 0.780549	 0.482800 
Sc71	 0.691781	 0.238099	 0.000000 
Sc72	 0.646554	 0.316435	 0.500000 
Sc73	 0.800034	 0.300599	 0.000000 
Sc74	 0.754807	 0.378935	 0.500000 
Dy75	 0.785645	 0.200523	 0.017200 
Dy76	 0.859651	 0.322339	 0.517200 
Dy77	 0.814424	 0.400675	 0.982800 
Dy78	 0.740417	 0.278859	 0.482800 
Sc79	 0.601326	 0.394771	 0.000000 
Sc80	 0.556099	 0.473108	 0.500000 
Sc81	 0.709579	 0.457271	 0.000000 
Sc82	 0.664352	 0.535608	 0.500000 
Dy83	 0.695190	 0.357195	 0.017200 
Dy84	 0.769197	 0.479011	 0.517200 
Dy85	 0.723969	 0.557348	 0.982800 
Dy86	 0.649962	 0.435532	 0.482800 
Sc87	 0.510871	 0.551444	 0.000000 
Sc88	 0.465644	 0.629780	 0.500000 
Sc89	 0.619125	 0.613944	 0.000000 
Sc90	 0.573897	 0.692280	 0.500000 
Dy91	 0.604735	 0.513868	 0.017200 
Dy92	 0.678742	 0.635684	 0.517200 
Dy93	 0.633514	 0.714020	 0.982800 
Dy94	 0.559507	 0.592204	 0.482800 
Sc95	 0.420416	 0.708116	 0.000000 
Sc96	 0.375189	 0.786453	 0.500000 
Sc97	 0.528670	 0.770616	 0.000000 
Sc98	 0.483442	 0.848953	 0.500000 
Dy99	 0.514280	 0.670540	 0.017200 
Dy100	 0.588287	 0.792356	 0.517200 
Dy101	 0.543059	 0.870693	 0.982800 
Dy102	 0.469052	 0.748876	 0.482800 
Sc103	 0.329962	 0.864789	 0.000000 
Sc104	 0.737009	 0.159763	 0.500000 
Sc105	 0.438215	 0.927289	 0.000000 
Sc106	 0.845262	 0.222263	 0.500000 
Dy107	 0.423825	 0.827213	 0.017200 
Dy108	 0.497832	 0.949029	 0.517200 
Dy109	 0.904879	 0.244003	 0.982800 
Dy110	 0.378598	 0.905549	 0.482800 
Sc111	 0.908287	 0.363099	 0.000000 
Sc112	 0.863060	 0.441435	 0.500000 
Sc113	 0.971313	 0.503935	 0.500000 
Dy114	 0.956923	 0.403859	 0.482800 
Sc115	 0.817833	 0.519771	 0.000000 
Sc116	 0.772605	 0.598108	 0.500000 
Sc117	 0.926086	 0.582271	 0.000000 
Sc118	 0.880858	 0.660608	 0.500000 
Dy119	 0.911696	 0.482195	 0.017200 
Dy120	 0.985703	 0.604011	 0.517200 
Dy121	 0.940476	 0.682348	 0.982800 
Dy122	 0.866469	 0.560532	 0.482800 
Sc123	 0.727378	 0.676444	 0.000000 
Sc124	 0.682150	 0.754780	 0.500000 
Sc125	 0.835631	 0.738944	 0.000000 
Sc126	 0.790403	 0.817280	 0.500000 
Dy127	 0.821241	 0.638868	 0.017200 
Dy128	 0.895248	 0.760684	 0.517200 
Dy129	 0.850021	 0.839020	 0.982800 
Dy130	 0.776014	 0.717204	 0.482800 
Sc131	 0.636923	 0.833116	 0.000000 
Sc132	 0.591695	 0.911453	 0.500000 
Sc133	 0.745176	 0.895616	 0.000000 
Sc134	 0.699949	 0.973953	 0.500000 
Dy135	 0.730786	 0.795540	 0.017200 
Dy136	 0.804793	 0.917356	 0.517200 
Dy137	 0.759566	 0.995693	 0.982800 
Dy138	 0.685559	 0.873876	 0.482800 
Sc139	 0.546468	 0.989789	 0.000000 
Sc140	 0.953515	 0.284763	 0.500000 
Dy141	 0.640331	 0.952213	 0.017200 
#                 ---end-of-data-block---
