data_C:\Users\admin\Documents\atomsegmentation_bupt_fullsuite_3\misc\10997.cif
_cell_length_a               31.652800
_cell_length_b               31.652800
_cell_length_c               5.449400
_cell_angle_alpha          90.000000
_cell_angle_beta           90.000000
_cell_angle_gamma          90.000000
_symmetry_cell_setting          Triclinic
_symmetry_space_group_name_H-M 'P 1' 
loop_
_atom_site_label
_atom_site_fract_x
_atom_site_fract_y
_atom_site_fract_z
Sc1	 0.523438	 0.121394	 0.000000 
Sc2	 0.459477	 0.185355	 0.500000 
Sc3	 0.611827	 0.209782	 0.000000 
Sc4	 0.547865	 0.273743	 0.500000 
Dy5	 0.623829	 0.109391	 0.017200 
Dy6	 0.663786	 0.246211	 0.517200 
Dy7	 0.599824	 0.310172	 0.982800 
Dy8	 0.559868	 0.173353	 0.482800 
Sc9	 0.395516	 0.249316	 0.000000 
Sc10	 0.331555	 0.313277	 0.500000 
Sc11	 0.483904	 0.337704	 0.000000 
Sc12	 0.419943	 0.401666	 0.500000 
Dy13	 0.495906	 0.237314	 0.017200 
Dy14	 0.535863	 0.374134	 0.517200 
Dy15	 0.471902	 0.438095	 0.982800 
Dy16	 0.431945	 0.301275	 0.482800 
Sc17	 0.267593	 0.377239	 0.000000 
Sc18	 0.203632	 0.441200	 0.500000 
Sc19	 0.355982	 0.465627	 0.000000 
Sc20	 0.292020	 0.529588	 0.500000 
Dy21	 0.367984	 0.365236	 0.017200 
Dy22	 0.407941	 0.502056	 0.517200 
Dy23	 0.343979	 0.566017	 0.982800 
Dy24	 0.304023	 0.429198	 0.482800 
Sc25	 0.139671	 0.505161	 0.000000 
Sc26	 0.075710	 0.569122	 0.500000 
Sc27	 0.228059	 0.593549	 0.000000 
Sc28	 0.164098	 0.657511	 0.500000 
Dy29	 0.240061	 0.493159	 0.017200 
Dy30	 0.280018	 0.629979	 0.517200 
Dy31	 0.216057	 0.693940	 0.982800 
Dy32	 0.176100	 0.557120	 0.482800 
Sc33	 0.011748	 0.633084	 0.000000 
Sc34	 0.587400	 0.057432	 0.500000 
Sc35	 0.100137	 0.721472	 0.000000 
Sc36	 0.675788	 0.145821	 0.500000 
Dy37	 0.112139	 0.621081	 0.017200 
Dy38	 0.152096	 0.757901	 0.517200 
Dy39	 0.727747	 0.182250	 0.982800 
Dy40	 0.048178	 0.685043	 0.482800 
Sc41	 0.700215	 0.298170	 0.000000 
Sc42	 0.636254	 0.362132	 0.500000 
Sc43	 0.788603	 0.386559	 0.000000 
Sc44	 0.724642	 0.450520	 0.500000 
Dy45	 0.800606	 0.286168	 0.017200 
Dy46	 0.840562	 0.422988	 0.517200 
Dy47	 0.776601	 0.486949	 0.982800 
Dy48	 0.736644	 0.350129	 0.482800 
Sc49	 0.572292	 0.426093	 0.000000 
Sc50	 0.508331	 0.490054	 0.500000 
Sc51	 0.660681	 0.514481	 0.000000 
Sc52	 0.596720	 0.578442	 0.500000 
Dy53	 0.672683	 0.414091	 0.017200 
Dy54	 0.712640	 0.550910	 0.517200 
Dy55	 0.648679	 0.614872	 0.982800 
Dy56	 0.608722	 0.478052	 0.482800 
Sc57	 0.444370	 0.554015	 0.000000 
Sc58	 0.380409	 0.617977	 0.500000 
Sc59	 0.532758	 0.642404	 0.000000 
Sc60	 0.468797	 0.706365	 0.500000 
Dy61	 0.544761	 0.542013	 0.017200 
Dy62	 0.584717	 0.678833	 0.517200 
Dy63	 0.520756	 0.742794	 0.982800 
Dy64	 0.480799	 0.605974	 0.482800 
Sc65	 0.316447	 0.681938	 0.000000 
Sc66	 0.252486	 0.745899	 0.500000 
Sc67	 0.404836	 0.770326	 0.000000 
Sc68	 0.340875	 0.834287	 0.500000 
Dy69	 0.416838	 0.669936	 0.017200 
Dy70	 0.456795	 0.806755	 0.517200 
Dy71	 0.392834	 0.870717	 0.982800 
Dy72	 0.352877	 0.733897	 0.482800 
Sc73	 0.188525	 0.809860	 0.000000 
Sc74	 0.764176	 0.234209	 0.500000 
Sc75	 0.276913	 0.898249	 0.000000 
Sc76	 0.852565	 0.322597	 0.500000 
Dy77	 0.288915	 0.797858	 0.017200 
Dy78	 0.328872	 0.934678	 0.517200 
Dy79	 0.904524	 0.359027	 0.982800 
Dy80	 0.224954	 0.861819	 0.482800 
Sc81	 0.876992	 0.474947	 0.000000 
Sc82	 0.813030	 0.538908	 0.500000 
Sc83	 0.965380	 0.563335	 0.000000 
Sc84	 0.901419	 0.627297	 0.500000 
Dy85	 0.977382	 0.462945	 0.017200 
Dy86	 0.953378	 0.663726	 0.982800 
Dy87	 0.913421	 0.526906	 0.482800 
Sc88	 0.749069	 0.602869	 0.000000 
Sc89	 0.685108	 0.666831	 0.500000 
Sc90	 0.837458	 0.691258	 0.000000 
Sc91	 0.773496	 0.755219	 0.500000 
Dy92	 0.849460	 0.590867	 0.017200 
Dy93	 0.889417	 0.727687	 0.517200 
Dy94	 0.825455	 0.791648	 0.982800 
Dy95	 0.785498	 0.654829	 0.482800 
Sc96	 0.621147	 0.730792	 0.000000 
Sc97	 0.557185	 0.794753	 0.500000 
Sc98	 0.709535	 0.819180	 0.000000 
Sc99	 0.645574	 0.883142	 0.500000 
Dy100	 0.721537	 0.718790	 0.017200 
Dy101	 0.761494	 0.855610	 0.517200 
Dy102	 0.697533	 0.919571	 0.982800 
Dy103	 0.657576	 0.782751	 0.482800 
Sc104	 0.493224	 0.858714	 0.000000 
Sc105	 0.429263	 0.922676	 0.500000 
Sc106	 0.581613	 0.947103	 0.000000 
Dy107	 0.593615	 0.846712	 0.017200 
Dy108	 0.633572	 0.983532	 0.517200 
Dy109	 0.529653	 0.910674	 0.482800 
Sc110	 0.365302	 0.986637	 0.000000 
Sc111	 0.940953	 0.410986	 0.500000 
Dy112	 0.465692	 0.974635	 0.017200 
Sc113	 0.989807	 0.715685	 0.500000 
Sc114	 0.435050	 0.033005	 0.000000 
Sc115	 0.371089	 0.096966	 0.500000 
Dy116	 0.487009	 0.069434	 0.517200 
Dy117	 0.423048	 0.133396	 0.982800 
Sc118	 0.925846	 0.779646	 0.000000 
Sc119	 0.861885	 0.843607	 0.500000 
Sc120	 0.307127	 0.160928	 0.000000 
Sc121	 0.243166	 0.224889	 0.500000 
Dy122	 0.319130	 0.060537	 0.017200 
Dy123	 0.359087	 0.197357	 0.517200 
Dy124	 0.295125	 0.261318	 0.982800 
Dy125	 0.255168	 0.124498	 0.482800 
Sc126	 0.797923	 0.907569	 0.000000 
Sc127	 0.733962	 0.971530	 0.500000 
Sc128	 0.179205	 0.288850	 0.000000 
Sc129	 0.115244	 0.352811	 0.500000 
Dy130	 0.191207	 0.188460	 0.017200 
Dy131	 0.231164	 0.325280	 0.517200 
Dy132	 0.167203	 0.389241	 0.982800 
Dy133	 0.127246	 0.252421	 0.482800 
Sc134	 0.051282	 0.416773	 0.000000 
Dy135	 0.063285	 0.316382	 0.017200 
Dy136	 0.103241	 0.453202	 0.517200 
Dy137	 0.039280	 0.517163	 0.982800 
Dy138	 0.550970	 0.005473	 0.982800 
#                 ---end-of-data-block---
