data_C:\Users\admin\Documents\atomsegmentation_bupt_fullsuite_3\misc\10995.cif
_cell_length_a               31.652800
_cell_length_b               31.652800
_cell_length_c               5.449400
_cell_angle_alpha          90.000000
_cell_angle_beta           90.000000
_cell_angle_gamma          90.000000
_symmetry_cell_setting          Triclinic
_symmetry_space_group_name_H-M 'P 1' 
loop_
_atom_site_label
_atom_site_fract_x
_atom_site_fract_y
_atom_site_fract_z
Sc1	 0.378003	 0.003812	 0.000000 
Sc2	 0.314042	 0.067773	 0.500000 
Sc3	 0.466391	 0.092200	 0.000000 
Sc4	 0.402430	 0.156162	 0.500000 
Dy5	 0.518350	 0.128630	 0.517200 
Dy6	 0.454389	 0.192591	 0.982800 
Dy7	 0.414432	 0.055771	 0.482800 
Sc8	 0.250081	 0.131735	 0.000000 
Sc9	 0.186119	 0.195696	 0.500000 
Sc10	 0.338469	 0.220123	 0.000000 
Sc11	 0.274508	 0.284084	 0.500000 
Dy12	 0.350471	 0.119732	 0.017200 
Dy13	 0.390428	 0.256552	 0.517200 
Dy14	 0.326467	 0.320513	 0.982800 
Dy15	 0.286510	 0.183694	 0.482800 
Sc16	 0.122158	 0.259657	 0.000000 
Sc17	 0.058197	 0.323618	 0.500000 
Sc18	 0.210546	 0.348045	 0.000000 
Sc19	 0.146585	 0.412007	 0.500000 
Dy20	 0.222549	 0.247655	 0.017200 
Dy21	 0.262505	 0.384475	 0.517200 
Dy22	 0.198544	 0.448436	 0.982800 
Dy23	 0.158587	 0.311616	 0.482800 
Sc24	 0.082624	 0.475968	 0.000000 
Sc25	 0.018663	 0.539929	 0.500000 
Dy26	 0.094626	 0.375577	 0.017200 
Dy27	 0.134583	 0.512397	 0.517200 
Dy28	 0.070622	 0.576358	 0.982800 
Dy29	 0.030665	 0.439539	 0.482800 
Sc30	 0.530353	 0.028239	 0.500000 
Dy31	 0.006660	 0.640320	 0.517200 
Dy32	 0.582312	 0.064668	 0.982800 
Sc33	 0.554780	 0.180589	 0.000000 
Sc34	 0.490819	 0.244550	 0.500000 
Sc35	 0.643168	 0.268977	 0.000000 
Sc36	 0.579207	 0.332938	 0.500000 
Dy37	 0.655170	 0.168587	 0.017200 
Dy38	 0.695127	 0.305406	 0.517200 
Dy39	 0.631166	 0.369368	 0.982800 
Dy40	 0.591209	 0.232548	 0.482800 
Sc41	 0.426857	 0.308511	 0.000000 
Sc42	 0.362896	 0.372473	 0.500000 
Sc43	 0.515246	 0.396900	 0.000000 
Sc44	 0.451284	 0.460861	 0.500000 
Dy45	 0.527248	 0.296509	 0.017200 
Dy46	 0.567205	 0.433329	 0.517200 
Dy47	 0.503243	 0.497290	 0.982800 
Dy48	 0.463287	 0.360470	 0.482800 
Sc49	 0.298935	 0.436434	 0.000000 
Sc50	 0.234973	 0.500395	 0.500000 
Sc51	 0.387323	 0.524822	 0.000000 
Sc52	 0.323362	 0.588783	 0.500000 
Dy53	 0.399325	 0.424432	 0.017200 
Dy54	 0.439282	 0.561251	 0.517200 
Dy55	 0.375321	 0.625213	 0.982800 
Dy56	 0.335364	 0.488393	 0.482800 
Sc57	 0.171012	 0.564356	 0.000000 
Sc58	 0.107051	 0.628318	 0.500000 
Sc59	 0.259401	 0.652745	 0.000000 
Sc60	 0.195439	 0.716706	 0.500000 
Dy61	 0.271403	 0.552354	 0.017200 
Dy62	 0.311360	 0.689174	 0.517200 
Dy63	 0.247398	 0.753135	 0.982800 
Dy64	 0.207442	 0.616315	 0.482800 
Sc65	 0.682702	 0.052666	 0.000000 
Sc66	 0.618741	 0.116627	 0.500000 
Sc67	 0.771091	 0.141055	 0.000000 
Sc68	 0.707129	 0.205016	 0.500000 
Dy69	 0.143480	 0.680277	 0.017200 
Dy70	 0.183437	 0.817096	 0.517200 
Dy71	 0.759088	 0.241445	 0.982800 
Dy72	 0.719132	 0.104625	 0.482800 
Sc73	 0.731556	 0.357365	 0.000000 
Sc74	 0.667595	 0.421327	 0.500000 
Sc75	 0.819945	 0.445754	 0.000000 
Sc76	 0.755984	 0.509715	 0.500000 
Dy77	 0.831947	 0.345363	 0.017200 
Dy78	 0.871904	 0.482183	 0.517200 
Dy79	 0.807943	 0.546144	 0.982800 
Dy80	 0.767986	 0.409325	 0.482800 
Sc81	 0.603634	 0.485288	 0.000000 
Sc82	 0.539673	 0.549249	 0.500000 
Sc83	 0.692022	 0.573676	 0.000000 
Sc84	 0.628061	 0.637638	 0.500000 
Dy85	 0.704024	 0.473286	 0.017200 
Dy86	 0.743981	 0.610106	 0.517200 
Dy87	 0.680020	 0.674067	 0.982800 
Dy88	 0.640063	 0.537247	 0.482800 
Sc89	 0.475711	 0.613210	 0.000000 
Sc90	 0.411750	 0.677172	 0.500000 
Sc91	 0.564100	 0.701599	 0.000000 
Sc92	 0.500139	 0.765560	 0.500000 
Dy93	 0.576102	 0.601208	 0.017200 
Dy94	 0.616059	 0.738028	 0.517200 
Dy95	 0.552098	 0.801989	 0.982800 
Dy96	 0.512141	 0.665170	 0.482800 
Sc97	 0.347789	 0.741133	 0.000000 
Sc98	 0.283828	 0.805094	 0.500000 
Sc99	 0.436177	 0.829521	 0.000000 
Sc100	 0.372216	 0.893483	 0.500000 
Dy101	 0.448179	 0.729131	 0.017200 
Dy102	 0.488136	 0.865951	 0.517200 
Dy103	 0.424175	 0.929912	 0.982800 
Dy104	 0.384218	 0.793092	 0.482800 
Sc105	 0.859479	 0.229443	 0.000000 
Sc106	 0.795518	 0.293404	 0.500000 
Sc107	 0.947867	 0.317831	 0.000000 
Sc108	 0.883906	 0.381793	 0.500000 
Dy109	 0.320257	 0.857053	 0.017200 
Dy110	 0.360214	 0.993873	 0.517200 
Dy111	 0.935865	 0.418222	 0.982800 
Dy112	 0.895908	 0.281402	 0.482800 
Sc113	 0.908333	 0.534142	 0.000000 
Sc114	 0.844372	 0.598103	 0.500000 
Sc115	 0.996721	 0.622530	 0.000000 
Sc116	 0.932760	 0.686492	 0.500000 
Dy117	 0.277613	 0.015814	 0.982800 
Dy118	 0.944762	 0.586101	 0.482800 
Sc119	 0.780411	 0.662065	 0.000000 
Sc120	 0.716449	 0.726026	 0.500000 
Sc121	 0.868799	 0.750453	 0.000000 
Sc122	 0.804838	 0.814414	 0.500000 
Dy123	 0.880801	 0.650062	 0.017200 
Dy124	 0.213651	 0.079775	 0.517200 
Dy125	 0.149690	 0.143737	 0.982800 
Dy126	 0.816840	 0.714024	 0.482800 
Sc127	 0.652488	 0.789987	 0.000000 
Sc128	 0.588527	 0.853948	 0.500000 
Sc129	 0.740876	 0.878376	 0.000000 
Sc130	 0.676915	 0.942337	 0.500000 
Dy131	 0.752879	 0.777985	 0.017200 
Dy132	 0.085729	 0.207698	 0.517200 
Dy133	 0.021768	 0.271659	 0.982800 
Dy134	 0.688917	 0.841946	 0.482800 
Sc135	 0.524566	 0.917910	 0.000000 
Sc136	 0.460604	 0.981871	 0.500000 
Dy137	 0.624956	 0.905907	 0.017200 
Dy138	 0.560995	 0.969869	 0.482800 
Sc139	 0.972294	 0.470181	 0.500000 
#                 ---end-of-data-block---
