data_C:\Users\admin\Documents\atomsegmentation_bupt_fullsuite_3\misc\11004.cif
_cell_length_a               31.652800
_cell_length_b               31.652800
_cell_length_c               5.449400
_cell_angle_alpha          90.000000
_cell_angle_beta           90.000000
_cell_angle_gamma          90.000000
_symmetry_cell_setting          Triclinic
_symmetry_space_group_name_H-M 'P 1' 
loop_
_atom_site_label
_atom_site_fract_x
_atom_site_fract_y
_atom_site_fract_z
Sc1	 0.477814	 0.012739	 0.000000 
Sc2	 0.399478	 0.057967	 0.500000 
Sc3	 0.540314	 0.120992	 0.000000 
Sc4	 0.461978	 0.166220	 0.500000 
Dy5	 0.577890	 0.027129	 0.017200 
Dy6	 0.581074	 0.169628	 0.517200 
Dy7	 0.502738	 0.214856	 0.982800 
Dy8	 0.499554	 0.072357	 0.482800 
Sc9	 0.321142	 0.103194	 0.000000 
Sc10	 0.242805	 0.148422	 0.500000 
Sc11	 0.383642	 0.211447	 0.000000 
Sc12	 0.305305	 0.256675	 0.500000 
Dy13	 0.421218	 0.117584	 0.017200 
Dy14	 0.424402	 0.260083	 0.517200 
Dy15	 0.346065	 0.305311	 0.982800 
Dy16	 0.342882	 0.162811	 0.482800 
Sc17	 0.164469	 0.193649	 0.000000 
Sc18	 0.086133	 0.238876	 0.500000 
Sc19	 0.226969	 0.301902	 0.000000 
Sc20	 0.148633	 0.347130	 0.500000 
Dy21	 0.264545	 0.208039	 0.017200 
Dy22	 0.267729	 0.350538	 0.517200 
Dy23	 0.189393	 0.395766	 0.982800 
Dy24	 0.186209	 0.253266	 0.482800 
Sc25	 0.007797	 0.284104	 0.000000 
Sc26	 0.070297	 0.392357	 0.000000 
Dy27	 0.107873	 0.298494	 0.017200 
Dy28	 0.111057	 0.440993	 0.517200 
Dy29	 0.032721	 0.486221	 0.982800 
Dy30	 0.029537	 0.343721	 0.482800 
Sc31	 0.696987	 0.030538	 0.000000 
Sc32	 0.618650	 0.075765	 0.500000 
Dy33	 0.737747	 0.079174	 0.517200 
Dy34	 0.659410	 0.124401	 0.982800 
Sc35	 0.602814	 0.229246	 0.000000 
Sc36	 0.524478	 0.274473	 0.500000 
Sc37	 0.665314	 0.337499	 0.000000 
Sc38	 0.586978	 0.382726	 0.500000 
Dy39	 0.702890	 0.243635	 0.017200 
Dy40	 0.706074	 0.386135	 0.517200 
Dy41	 0.627738	 0.431362	 0.982800 
Dy42	 0.624554	 0.288863	 0.482800 
Sc43	 0.446142	 0.319701	 0.000000 
Sc44	 0.367805	 0.364928	 0.500000 
Sc45	 0.508642	 0.427954	 0.000000 
Sc46	 0.430305	 0.473181	 0.500000 
Dy47	 0.546218	 0.334090	 0.017200 
Dy48	 0.549402	 0.476590	 0.517200 
Dy49	 0.471065	 0.521817	 0.982800 
Dy50	 0.467882	 0.379318	 0.482800 
Sc51	 0.289469	 0.410155	 0.000000 
Sc52	 0.211133	 0.455383	 0.500000 
Sc53	 0.351969	 0.518409	 0.000000 
Sc54	 0.273633	 0.563636	 0.500000 
Dy55	 0.389545	 0.424545	 0.017200 
Dy56	 0.392729	 0.567045	 0.517200 
Dy57	 0.314393	 0.612272	 0.982800 
Dy58	 0.311209	 0.469773	 0.482800 
Sc59	 0.132797	 0.500610	 0.000000 
Sc60	 0.054461	 0.545838	 0.500000 
Sc61	 0.195297	 0.608863	 0.000000 
Sc62	 0.116961	 0.654091	 0.500000 
Dy63	 0.232873	 0.515000	 0.017200 
Dy64	 0.236057	 0.657499	 0.517200 
Dy65	 0.157721	 0.702727	 0.982800 
Dy66	 0.154537	 0.560227	 0.482800 
Sc67	 0.759487	 0.138791	 0.000000 
Sc68	 0.681150	 0.184018	 0.500000 
Sc69	 0.821987	 0.247044	 0.000000 
Sc70	 0.743650	 0.292271	 0.500000 
Dy71	 0.076201	 0.605455	 0.017200 
Dy72	 0.862747	 0.295680	 0.517200 
Dy73	 0.784410	 0.340907	 0.982800 
Dy74	 0.781227	 0.198408	 0.482800 
Sc75	 0.727814	 0.445752	 0.000000 
Sc76	 0.649478	 0.490979	 0.500000 
Sc77	 0.790314	 0.554005	 0.000000 
Sc78	 0.711978	 0.599233	 0.500000 
Dy79	 0.827890	 0.460142	 0.017200 
Dy80	 0.831074	 0.602641	 0.517200 
Dy81	 0.752738	 0.647869	 0.982800 
Dy82	 0.749554	 0.505369	 0.482800 
Sc83	 0.571142	 0.536207	 0.000000 
Sc84	 0.492805	 0.581434	 0.500000 
Sc85	 0.633642	 0.644460	 0.000000 
Sc86	 0.555305	 0.689688	 0.500000 
Dy87	 0.671218	 0.550597	 0.017200 
Dy88	 0.674402	 0.693096	 0.517200 
Dy89	 0.596065	 0.738323	 0.982800 
Dy90	 0.592882	 0.595824	 0.482800 
Sc91	 0.414469	 0.626662	 0.000000 
Sc92	 0.336133	 0.671889	 0.500000 
Sc93	 0.476969	 0.734915	 0.000000 
Sc94	 0.398633	 0.780142	 0.500000 
Dy95	 0.514545	 0.641052	 0.017200 
Dy96	 0.517729	 0.783551	 0.517200 
Dy97	 0.439393	 0.828778	 0.982800 
Dy98	 0.436209	 0.686279	 0.482800 
Sc99	 0.257797	 0.717117	 0.000000 
Sc100	 0.179461	 0.762344	 0.500000 
Sc101	 0.320297	 0.825370	 0.000000 
Sc102	 0.241961	 0.870597	 0.500000 
Dy103	 0.357873	 0.731506	 0.017200 
Dy104	 0.361057	 0.874006	 0.517200 
Dy105	 0.282721	 0.919233	 0.982800 
Dy106	 0.279537	 0.776734	 0.482800 
Sc107	 0.884487	 0.355297	 0.000000 
Sc108	 0.806150	 0.400525	 0.500000 
Sc109	 0.946987	 0.463550	 0.000000 
Sc110	 0.868650	 0.508778	 0.500000 
Dy111	 0.201201	 0.821961	 0.017200 
Dy112	 0.987747	 0.512186	 0.517200 
Dy113	 0.909410	 0.557414	 0.982800 
Dy114	 0.906227	 0.414914	 0.482800 
Sc115	 0.852814	 0.662258	 0.000000 
Sc116	 0.774478	 0.707486	 0.500000 
Sc117	 0.915314	 0.770512	 0.000000 
Sc118	 0.836978	 0.815739	 0.500000 
Dy119	 0.952890	 0.676648	 0.017200 
Dy120	 0.874554	 0.721876	 0.482800 
Sc121	 0.696142	 0.752713	 0.000000 
Sc122	 0.617805	 0.797941	 0.500000 
Sc123	 0.758642	 0.860966	 0.000000 
Sc124	 0.680305	 0.906194	 0.500000 
Dy125	 0.796218	 0.767103	 0.017200 
Dy126	 0.299402	 0.043577	 0.517200 
Dy127	 0.221065	 0.088804	 0.982800 
Dy128	 0.717882	 0.812330	 0.482800 
Sc129	 0.539469	 0.843168	 0.000000 
Sc130	 0.461133	 0.888396	 0.500000 
Sc131	 0.601969	 0.951421	 0.000000 
Sc132	 0.523633	 0.996649	 0.500000 
Dy133	 0.639545	 0.857558	 0.017200 
Dy134	 0.142729	 0.134032	 0.517200 
Dy135	 0.064393	 0.179259	 0.982800 
Dy136	 0.561209	 0.902785	 0.482800 
Sc137	 0.382797	 0.933623	 0.000000 
Sc138	 0.304461	 0.978850	 0.500000 
Dy139	 0.482873	 0.948013	 0.017200 
Dy140	 0.404537	 0.993240	 0.482800 
Sc141	 0.931150	 0.617031	 0.500000 
Sc142	 0.993650	 0.725284	 0.500000 
#                 ---end-of-data-block---
