data_C:\Users\admin\Documents\atomsegmentation_bupt_fullsuite_3\misc\11003.cif
_cell_length_a               31.652800
_cell_length_b               31.652800
_cell_length_c               5.449400
_cell_angle_alpha          90.000000
_cell_angle_beta           90.000000
_cell_angle_gamma          90.000000
_symmetry_cell_setting          Triclinic
_symmetry_space_group_name_H-M 'P 1' 
loop_
_atom_site_label
_atom_site_fract_x
_atom_site_fract_y
_atom_site_fract_z
Sc1	 0.520970	 0.094856	 0.000000 
Sc2	 0.442634	 0.140083	 0.500000 
Sc3	 0.583470	 0.203109	 0.000000 
Sc4	 0.505134	 0.248336	 0.500000 
Dy5	 0.621046	 0.109246	 0.017200 
Dy6	 0.624230	 0.251745	 0.517200 
Dy7	 0.545894	 0.296972	 0.982800 
Dy8	 0.542710	 0.154473	 0.482800 
Sc9	 0.364298	 0.185311	 0.000000 
Sc10	 0.285962	 0.230538	 0.500000 
Sc11	 0.426798	 0.293564	 0.000000 
Sc12	 0.348462	 0.338791	 0.500000 
Dy13	 0.464374	 0.199700	 0.017200 
Dy14	 0.467558	 0.342200	 0.517200 
Dy15	 0.389222	 0.387427	 0.982800 
Dy16	 0.386038	 0.244928	 0.482800 
Sc17	 0.207625	 0.275766	 0.000000 
Sc18	 0.129289	 0.320993	 0.500000 
Sc19	 0.270125	 0.384019	 0.000000 
Sc20	 0.191789	 0.429246	 0.500000 
Dy21	 0.307702	 0.290155	 0.017200 
Dy22	 0.310885	 0.432655	 0.517200 
Dy23	 0.232549	 0.477882	 0.982800 
Dy24	 0.229365	 0.335383	 0.482800 
Sc25	 0.050953	 0.366220	 0.000000 
Sc26	 0.113453	 0.474474	 0.000000 
Sc27	 0.035117	 0.519701	 0.500000 
Dy28	 0.151029	 0.380610	 0.017200 
Dy29	 0.154213	 0.523110	 0.517200 
Dy30	 0.075877	 0.568337	 0.982800 
Dy31	 0.072693	 0.425838	 0.482800 
Sc32	 0.677643	 0.004401	 0.000000 
Sc33	 0.599306	 0.049628	 0.500000 
Sc34	 0.740143	 0.112654	 0.000000 
Sc35	 0.661806	 0.157882	 0.500000 
Dy36	 0.780903	 0.161290	 0.517200 
Dy37	 0.702566	 0.206518	 0.982800 
Dy38	 0.699383	 0.064018	 0.482800 
Sc39	 0.645970	 0.311362	 0.000000 
Sc40	 0.567634	 0.356590	 0.500000 
Sc41	 0.708470	 0.419615	 0.000000 
Sc42	 0.630134	 0.464843	 0.500000 
Dy43	 0.746046	 0.325752	 0.017200 
Dy44	 0.749230	 0.468251	 0.517200 
Dy45	 0.670894	 0.513479	 0.982800 
Dy46	 0.667710	 0.370979	 0.482800 
Sc47	 0.489298	 0.401817	 0.000000 
Sc48	 0.410962	 0.447045	 0.500000 
Sc49	 0.551798	 0.510070	 0.000000 
Sc50	 0.473462	 0.555298	 0.500000 
Dy51	 0.589374	 0.416207	 0.017200 
Dy52	 0.592558	 0.558706	 0.517200 
Dy53	 0.514222	 0.603934	 0.982800 
Dy54	 0.511038	 0.461434	 0.482800 
Sc55	 0.332625	 0.492272	 0.000000 
Sc56	 0.254289	 0.537499	 0.500000 
Sc57	 0.395125	 0.600525	 0.000000 
Sc58	 0.316789	 0.645753	 0.500000 
Dy59	 0.432702	 0.506662	 0.017200 
Dy60	 0.435885	 0.649161	 0.517200 
Dy61	 0.357549	 0.694389	 0.982800 
Dy62	 0.354365	 0.551889	 0.482800 
Sc63	 0.175953	 0.582727	 0.000000 
Sc64	 0.097617	 0.627954	 0.500000 
Sc65	 0.238453	 0.690980	 0.000000 
Sc66	 0.160117	 0.736207	 0.500000 
Dy67	 0.276029	 0.597117	 0.017200 
Dy68	 0.279213	 0.739616	 0.517200 
Dy69	 0.200877	 0.784843	 0.982800 
Dy70	 0.197693	 0.642344	 0.482800 
Sc71	 0.802643	 0.220907	 0.000000 
Sc72	 0.724306	 0.266135	 0.500000 
Sc73	 0.865143	 0.329161	 0.000000 
Sc74	 0.786806	 0.374388	 0.500000 
Dy75	 0.119357	 0.687571	 0.017200 
Dy76	 0.905903	 0.377796	 0.517200 
Dy77	 0.827566	 0.423024	 0.982800 
Dy78	 0.824383	 0.280525	 0.482800 
Sc79	 0.770970	 0.527869	 0.000000 
Sc80	 0.692634	 0.573096	 0.500000 
Sc81	 0.833470	 0.636122	 0.000000 
Sc82	 0.755134	 0.681349	 0.500000 
Dy83	 0.871046	 0.542258	 0.017200 
Dy84	 0.874230	 0.684758	 0.517200 
Dy85	 0.795894	 0.729985	 0.982800 
Dy86	 0.792710	 0.587486	 0.482800 
Sc87	 0.614298	 0.618323	 0.000000 
Sc88	 0.535962	 0.663551	 0.500000 
Sc89	 0.676798	 0.726577	 0.000000 
Sc90	 0.598462	 0.771804	 0.500000 
Dy91	 0.714374	 0.632713	 0.017200 
Dy92	 0.717558	 0.775213	 0.517200 
Dy93	 0.639222	 0.820440	 0.982800 
Dy94	 0.636038	 0.677941	 0.482800 
Sc95	 0.457625	 0.708778	 0.000000 
Sc96	 0.379289	 0.754006	 0.500000 
Sc97	 0.520125	 0.817031	 0.000000 
Sc98	 0.441789	 0.862259	 0.500000 
Dy99	 0.557702	 0.723168	 0.017200 
Dy100	 0.560885	 0.865667	 0.517200 
Dy101	 0.482549	 0.910895	 0.982800 
Dy102	 0.479365	 0.768395	 0.482800 
Sc103	 0.300953	 0.799233	 0.000000 
Sc104	 0.222617	 0.844461	 0.500000 
Sc105	 0.363453	 0.907486	 0.000000 
Sc106	 0.285117	 0.952714	 0.500000 
Dy107	 0.401029	 0.813623	 0.017200 
Dy108	 0.404213	 0.956122	 0.517200 
Dy109	 0.322693	 0.858850	 0.482800 
Sc110	 0.927643	 0.437414	 0.000000 
Sc111	 0.849306	 0.482641	 0.500000 
Sc112	 0.990143	 0.545667	 0.000000 
Sc113	 0.911806	 0.590894	 0.500000 
Dy114	 0.244357	 0.904078	 0.017200 
Dy115	 0.952566	 0.639530	 0.982800 
Dy116	 0.949383	 0.497031	 0.482800 
Sc117	 0.895970	 0.744375	 0.000000 
Sc118	 0.817634	 0.789602	 0.500000 
Sc119	 0.380134	 0.031830	 0.500000 
Dy120	 0.996046	 0.758765	 0.017200 
Dy121	 0.499230	 0.035239	 0.517200 
Dy122	 0.420894	 0.080466	 0.982800 
Dy123	 0.917710	 0.803992	 0.482800 
Sc124	 0.739298	 0.834830	 0.000000 
Sc125	 0.660962	 0.880057	 0.500000 
Sc126	 0.301798	 0.077058	 0.000000 
Sc127	 0.223462	 0.122285	 0.500000 
Dy128	 0.839374	 0.849220	 0.017200 
Dy129	 0.342558	 0.125694	 0.517200 
Dy130	 0.264222	 0.170921	 0.982800 
Dy131	 0.761038	 0.894447	 0.482800 
Sc132	 0.582625	 0.925285	 0.000000 
Sc133	 0.504289	 0.970512	 0.500000 
Sc134	 0.145125	 0.167512	 0.000000 
Sc135	 0.066789	 0.212740	 0.500000 
Dy136	 0.682702	 0.939674	 0.017200 
Dy137	 0.185885	 0.216148	 0.517200 
Dy138	 0.107549	 0.261376	 0.982800 
Dy139	 0.604365	 0.984902	 0.482800 
Dy140	 0.029213	 0.306603	 0.517200 
Sc141	 0.974306	 0.699147	 0.500000 
#                 ---end-of-data-block---
