data_C:\Users\admin\Documents\atomsegmentation_bupt_fullsuite_3\misc\11010.cif
_cell_length_a               31.652800
_cell_length_b               31.652800
_cell_length_c               5.449400
_cell_angle_alpha          90.000000
_cell_angle_beta           90.000000
_cell_angle_gamma          90.000000
_symmetry_cell_setting          Triclinic
_symmetry_space_group_name_H-M 'P 1' 
loop_
_atom_site_label
_atom_site_fract_x
_atom_site_fract_y
_atom_site_fract_z
Sc1	 0.597258	 0.107813	 0.000000 
Sc2	 0.509885	 0.131225	 0.500000 
Sc3	 0.629610	 0.228554	 0.000000 
Sc4	 0.542238	 0.251965	 0.500000 
Dy5	 0.690200	 0.147614	 0.017200 
Dy6	 0.656394	 0.286082	 0.517200 
Dy7	 0.569021	 0.309494	 0.982800 
Dy8	 0.602827	 0.171026	 0.482800 
Sc9	 0.422513	 0.154636	 0.000000 
Sc10	 0.335140	 0.178047	 0.500000 
Sc11	 0.454865	 0.275377	 0.000000 
Sc12	 0.367492	 0.298788	 0.500000 
Dy13	 0.515454	 0.194437	 0.017200 
Dy14	 0.481648	 0.332905	 0.517200 
Dy15	 0.394275	 0.356316	 0.982800 
Dy16	 0.428082	 0.217849	 0.482800 
Sc17	 0.247767	 0.201459	 0.000000 
Sc18	 0.160394	 0.224870	 0.500000 
Sc19	 0.280119	 0.322200	 0.000000 
Sc20	 0.192747	 0.345611	 0.500000 
Dy21	 0.340709	 0.241260	 0.017200 
Dy22	 0.306903	 0.379728	 0.517200 
Dy23	 0.219530	 0.403139	 0.982800 
Dy24	 0.253336	 0.264671	 0.482800 
Sc25	 0.073022	 0.248282	 0.000000 
Sc26	 0.105374	 0.369023	 0.000000 
Sc27	 0.018001	 0.392434	 0.500000 
Dy28	 0.165964	 0.288083	 0.017200 
Dy29	 0.132157	 0.426551	 0.517200 
Dy30	 0.044785	 0.449962	 0.982800 
Dy31	 0.078591	 0.311494	 0.482800 
Sc32	 0.772003	 0.060990	 0.000000 
Sc33	 0.684631	 0.084402	 0.500000 
Sc34	 0.804356	 0.181731	 0.000000 
Sc35	 0.716983	 0.205142	 0.500000 
Dy36	 0.831139	 0.239259	 0.517200 
Dy37	 0.743766	 0.262671	 0.982800 
Dy38	 0.777572	 0.124203	 0.482800 
Sc39	 0.661963	 0.349295	 0.000000 
Sc40	 0.574590	 0.372706	 0.500000 
Sc41	 0.694315	 0.470035	 0.000000 
Sc42	 0.606942	 0.493447	 0.500000 
Dy43	 0.754904	 0.389096	 0.017200 
Dy44	 0.721098	 0.527564	 0.517200 
Dy45	 0.633726	 0.550975	 0.982800 
Dy46	 0.667532	 0.412507	 0.482800 
Sc47	 0.487217	 0.396117	 0.000000 
Sc48	 0.399845	 0.419529	 0.500000 
Sc49	 0.519570	 0.516858	 0.000000 
Sc50	 0.432197	 0.540270	 0.500000 
Dy51	 0.580159	 0.435919	 0.017200 
Dy52	 0.546353	 0.574386	 0.517200 
Dy53	 0.458980	 0.597798	 0.982800 
Dy54	 0.492786	 0.459330	 0.482800 
Sc55	 0.312472	 0.442940	 0.000000 
Sc56	 0.225099	 0.466352	 0.500000 
Sc57	 0.344824	 0.563681	 0.000000 
Sc58	 0.257452	 0.587093	 0.500000 
Dy59	 0.405414	 0.482741	 0.017200 
Dy60	 0.371607	 0.621209	 0.517200 
Dy61	 0.284235	 0.644621	 0.982800 
Dy62	 0.318041	 0.506153	 0.482800 
Sc63	 0.137726	 0.489763	 0.000000 
Sc64	 0.050354	 0.513175	 0.500000 
Sc65	 0.170079	 0.610504	 0.000000 
Sc66	 0.082706	 0.633915	 0.500000 
Dy67	 0.230668	 0.529564	 0.017200 
Dy68	 0.196862	 0.668032	 0.517200 
Dy69	 0.109489	 0.691444	 0.982800 
Dy70	 0.143296	 0.552976	 0.482800 
Sc71	 0.836708	 0.302472	 0.000000 
Sc72	 0.749335	 0.325883	 0.500000 
Sc73	 0.869060	 0.423212	 0.000000 
Sc74	 0.781688	 0.446624	 0.500000 
Dy75	 0.055923	 0.576387	 0.017200 
Dy76	 0.895844	 0.480741	 0.517200 
Dy77	 0.808471	 0.504152	 0.982800 
Dy78	 0.842277	 0.365684	 0.482800 
Sc79	 0.726667	 0.590776	 0.000000 
Sc80	 0.639295	 0.614187	 0.500000 
Sc81	 0.759020	 0.711517	 0.000000 
Sc82	 0.671647	 0.734928	 0.500000 
Dy83	 0.819609	 0.630577	 0.017200 
Dy84	 0.785803	 0.769045	 0.517200 
Dy85	 0.698430	 0.792456	 0.982800 
Dy86	 0.732237	 0.653989	 0.482800 
Sc87	 0.551922	 0.637599	 0.000000 
Sc88	 0.464549	 0.661010	 0.500000 
Sc89	 0.584274	 0.758340	 0.000000 
Sc90	 0.496902	 0.781751	 0.500000 
Dy91	 0.644864	 0.677400	 0.017200 
Dy92	 0.611058	 0.815868	 0.517200 
Dy93	 0.523685	 0.839279	 0.982800 
Dy94	 0.557491	 0.700811	 0.482800 
Sc95	 0.377177	 0.684422	 0.000000 
Sc96	 0.289804	 0.707833	 0.500000 
Sc97	 0.409529	 0.805163	 0.000000 
Sc98	 0.322156	 0.828574	 0.500000 
Dy99	 0.470118	 0.724223	 0.017200 
Dy100	 0.436312	 0.862691	 0.517200 
Dy101	 0.348940	 0.886102	 0.982800 
Dy102	 0.382746	 0.747634	 0.482800 
Sc103	 0.202431	 0.731245	 0.000000 
Sc104	 0.115059	 0.754656	 0.500000 
Sc105	 0.234784	 0.851985	 0.000000 
Sc106	 0.147411	 0.875397	 0.500000 
Dy107	 0.295373	 0.771046	 0.017200 
Dy108	 0.261567	 0.909514	 0.517200 
Dy109	 0.174194	 0.932925	 0.982800 
Dy110	 0.208000	 0.794457	 0.482800 
Sc111	 0.901413	 0.543953	 0.000000 
Sc112	 0.814040	 0.567365	 0.500000 
Sc113	 0.933765	 0.664694	 0.000000 
Sc114	 0.846392	 0.688105	 0.500000 
Dy115	 0.120628	 0.817869	 0.017200 
Dy116	 0.960548	 0.722222	 0.517200 
Dy117	 0.873176	 0.745634	 0.982800 
Dy118	 0.906982	 0.607166	 0.482800 
Sc119	 0.791372	 0.832257	 0.000000 
Sc120	 0.703999	 0.855669	 0.500000 
Sc121	 0.477533	 0.010484	 0.500000 
Dy122	 0.884314	 0.872059	 0.017200 
Dy123	 0.591689	 0.044601	 0.517200 
Dy124	 0.504316	 0.068012	 0.982800 
Dy125	 0.796941	 0.895470	 0.482800 
Sc126	 0.616627	 0.879080	 0.000000 
Sc127	 0.529254	 0.902492	 0.500000 
Sc128	 0.390160	 0.033895	 0.000000 
Sc129	 0.302787	 0.057307	 0.500000 
Dy130	 0.709569	 0.918881	 0.017200 
Dy131	 0.416943	 0.091424	 0.517200 
Dy132	 0.329571	 0.114835	 0.982800 
Dy133	 0.622196	 0.942293	 0.482800 
Sc134	 0.441881	 0.925903	 0.000000 
Sc135	 0.354509	 0.949315	 0.500000 
Sc136	 0.215415	 0.080718	 0.000000 
Sc137	 0.128042	 0.104130	 0.500000 
Dy138	 0.534823	 0.965704	 0.017200 
Dy139	 0.242198	 0.138246	 0.517200 
Dy140	 0.154825	 0.161658	 0.982800 
Dy141	 0.447451	 0.989116	 0.482800 
Sc142	 0.267136	 0.972726	 0.000000 
Sc143	 0.179763	 0.996138	 0.500000 
Sc144	 0.040669	 0.127541	 0.000000 
Dy145	 0.067453	 0.185069	 0.517200 
Sc146	 0.966118	 0.785435	 0.000000 
Sc147	 0.878745	 0.808846	 0.500000 
Dy148	 0.679061	 0.021189	 0.982800 
Dy149	 0.971687	 0.848647	 0.482800 
#                 ---end-of-data-block---
