data_C:\Users\admin\Documents\atomsegmentation_bupt_fullsuite_3\misc\11015.cif
_cell_length_a               31.652800
_cell_length_b               31.652800
_cell_length_c               5.449400
_cell_angle_alpha          90.000000
_cell_angle_beta           90.000000
_cell_angle_gamma          90.000000
_symmetry_cell_setting          Triclinic
_symmetry_space_group_name_H-M 'P 1' 
loop_
_atom_site_label
_atom_site_fract_x
_atom_site_fract_y
_atom_site_fract_z
Sc1	 0.573713	 0.069489	 0.000000 
Sc2	 0.486340	 0.092900	 0.500000 
Sc3	 0.606065	 0.190229	 0.000000 
Sc4	 0.518692	 0.213641	 0.500000 
Dy5	 0.666654	 0.109290	 0.017200 
Dy6	 0.632848	 0.247758	 0.517200 
Dy7	 0.545475	 0.271169	 0.982800 
Dy8	 0.579282	 0.132701	 0.482800 
Sc9	 0.398967	 0.116312	 0.000000 
Sc10	 0.311594	 0.139723	 0.500000 
Sc11	 0.431320	 0.237052	 0.000000 
Sc12	 0.343947	 0.260464	 0.500000 
Dy13	 0.491909	 0.156113	 0.017200 
Dy14	 0.458103	 0.294581	 0.517200 
Dy15	 0.370730	 0.317992	 0.982800 
Dy16	 0.404536	 0.179524	 0.482800 
Sc17	 0.224222	 0.163135	 0.000000 
Sc18	 0.136849	 0.186546	 0.500000 
Sc19	 0.256574	 0.283875	 0.000000 
Sc20	 0.169201	 0.307287	 0.500000 
Dy21	 0.317164	 0.202936	 0.017200 
Dy22	 0.283357	 0.341403	 0.517200 
Dy23	 0.195985	 0.364815	 0.982800 
Dy24	 0.229791	 0.226347	 0.482800 
Sc25	 0.049476	 0.209957	 0.000000 
Sc26	 0.081829	 0.330698	 0.000000 
Dy27	 0.142418	 0.249758	 0.017200 
Dy28	 0.108612	 0.388226	 0.517200 
Dy29	 0.021239	 0.411638	 0.982800 
Dy30	 0.055045	 0.273170	 0.482800 
Sc31	 0.748458	 0.022666	 0.000000 
Sc32	 0.661085	 0.046077	 0.500000 
Sc33	 0.780810	 0.143407	 0.000000 
Sc34	 0.693438	 0.166818	 0.500000 
Dy35	 0.841400	 0.062467	 0.017200 
Dy36	 0.807594	 0.200935	 0.517200 
Dy37	 0.720221	 0.224346	 0.982800 
Dy38	 0.754027	 0.085878	 0.482800 
Sc39	 0.638417	 0.310970	 0.000000 
Sc40	 0.551045	 0.334382	 0.500000 
Sc41	 0.670770	 0.431711	 0.000000 
Sc42	 0.583397	 0.455122	 0.500000 
Dy43	 0.731359	 0.350771	 0.017200 
Dy44	 0.697553	 0.489239	 0.517200 
Dy45	 0.610180	 0.512651	 0.982800 
Dy46	 0.643986	 0.374183	 0.482800 
Sc47	 0.463672	 0.357793	 0.000000 
Sc48	 0.376299	 0.381205	 0.500000 
Sc49	 0.496024	 0.478534	 0.000000 
Sc50	 0.408652	 0.501945	 0.500000 
Dy51	 0.556614	 0.397594	 0.017200 
Dy52	 0.522808	 0.536062	 0.517200 
Dy53	 0.435435	 0.559473	 0.982800 
Dy54	 0.469241	 0.421006	 0.482800 
Sc55	 0.288927	 0.404616	 0.000000 
Sc56	 0.201554	 0.428027	 0.500000 
Sc57	 0.321279	 0.525357	 0.000000 
Sc58	 0.233906	 0.548768	 0.500000 
Dy59	 0.381868	 0.444417	 0.017200 
Dy60	 0.348062	 0.582885	 0.517200 
Dy61	 0.260689	 0.606296	 0.982800 
Dy62	 0.294496	 0.467828	 0.482800 
Sc63	 0.114181	 0.451439	 0.000000 
Sc64	 0.026808	 0.474850	 0.500000 
Sc65	 0.146533	 0.572180	 0.000000 
Sc66	 0.059161	 0.595591	 0.500000 
Dy67	 0.207123	 0.491240	 0.017200 
Dy68	 0.173317	 0.629708	 0.517200 
Dy69	 0.085944	 0.653119	 0.982800 
Dy70	 0.119750	 0.514651	 0.482800 
Sc71	 0.813163	 0.264147	 0.000000 
Sc72	 0.725790	 0.287559	 0.500000 
Sc73	 0.845515	 0.384888	 0.000000 
Sc74	 0.758142	 0.408299	 0.500000 
Dy75	 0.906105	 0.303948	 0.017200 
Dy76	 0.872298	 0.442416	 0.517200 
Dy77	 0.784926	 0.465828	 0.982800 
Dy78	 0.818732	 0.327360	 0.482800 
Sc79	 0.703122	 0.552452	 0.000000 
Sc80	 0.615749	 0.575863	 0.500000 
Sc81	 0.735474	 0.673192	 0.000000 
Sc82	 0.648102	 0.696604	 0.500000 
Dy83	 0.796064	 0.592253	 0.017200 
Dy84	 0.762258	 0.730721	 0.517200 
Dy85	 0.674885	 0.754132	 0.982800 
Dy86	 0.708691	 0.615664	 0.482800 
Sc87	 0.528377	 0.599275	 0.000000 
Sc88	 0.441004	 0.622686	 0.500000 
Sc89	 0.560729	 0.720015	 0.000000 
Sc90	 0.473356	 0.743427	 0.500000 
Dy91	 0.621319	 0.639076	 0.017200 
Dy92	 0.587512	 0.777543	 0.517200 
Dy93	 0.500140	 0.800955	 0.982800 
Dy94	 0.533946	 0.662487	 0.482800 
Sc95	 0.353631	 0.646097	 0.000000 
Sc96	 0.266259	 0.669509	 0.500000 
Sc97	 0.385984	 0.766838	 0.000000 
Sc98	 0.298611	 0.790250	 0.500000 
Dy99	 0.446573	 0.685898	 0.017200 
Dy100	 0.412767	 0.824366	 0.517200 
Dy101	 0.325394	 0.847778	 0.982800 
Dy102	 0.359200	 0.709310	 0.482800 
Sc103	 0.178886	 0.692920	 0.000000 
Sc104	 0.091513	 0.716332	 0.500000 
Sc105	 0.211238	 0.813661	 0.000000 
Sc106	 0.123866	 0.837072	 0.500000 
Dy107	 0.271828	 0.732721	 0.017200 
Dy108	 0.238021	 0.871189	 0.517200 
Dy109	 0.150649	 0.894601	 0.982800 
Dy110	 0.184455	 0.756133	 0.482800 
Sc111	 0.877867	 0.505629	 0.000000 
Sc112	 0.790495	 0.529040	 0.500000 
Sc113	 0.910220	 0.626369	 0.000000 
Sc114	 0.822847	 0.649781	 0.500000 
Dy115	 0.970809	 0.545430	 0.017200 
Dy116	 0.937003	 0.683898	 0.517200 
Dy117	 0.849630	 0.707309	 0.982800 
Dy118	 0.883437	 0.568841	 0.482800 
Sc119	 0.767827	 0.793933	 0.000000 
Sc120	 0.680454	 0.817345	 0.500000 
Sc121	 0.800179	 0.914674	 0.000000 
Sc122	 0.712807	 0.938085	 0.500000 
Dy123	 0.860769	 0.833734	 0.017200 
Dy124	 0.568143	 0.006276	 0.517200 
Dy125	 0.480771	 0.029688	 0.982800 
Dy126	 0.773396	 0.857146	 0.482800 
Sc127	 0.593081	 0.840756	 0.000000 
Sc128	 0.505709	 0.864167	 0.500000 
Sc129	 0.625434	 0.961497	 0.000000 
Sc130	 0.538061	 0.984908	 0.500000 
Dy131	 0.686023	 0.880557	 0.017200 
Dy132	 0.393398	 0.053099	 0.517200 
Dy133	 0.306025	 0.076511	 0.982800 
Dy134	 0.598651	 0.903969	 0.482800 
Sc135	 0.418336	 0.887579	 0.000000 
Sc136	 0.330963	 0.910990	 0.500000 
Dy137	 0.511278	 0.927380	 0.017200 
Dy138	 0.218653	 0.099922	 0.517200 
Dy139	 0.131280	 0.123333	 0.982800 
Dy140	 0.423905	 0.950791	 0.482800 
Sc141	 0.243591	 0.934402	 0.000000 
Sc142	 0.156218	 0.957813	 0.500000 
Dy143	 0.336532	 0.974203	 0.017200 
Dy144	 0.043907	 0.146745	 0.517200 
Dy145	 0.249160	 0.997614	 0.482800 
Sc146	 0.942572	 0.747110	 0.000000 
Sc147	 0.855200	 0.770522	 0.500000 
Sc148	 0.974925	 0.867851	 0.000000 
Sc149	 0.887552	 0.891262	 0.500000 
Dy150	 0.948141	 0.810323	 0.482800 
#                 ---end-of-data-block---
