data_C:\Users\admin\Documents\atomsegmentation_bupt_fullsuite_3\misc\11016.cif
_cell_length_a               31.652800
_cell_length_b               31.652800
_cell_length_c               5.449400
_cell_angle_alpha          90.000000
_cell_angle_beta           90.000000
_cell_angle_gamma          90.000000
_symmetry_cell_setting          Triclinic
_symmetry_space_group_name_H-M 'P 1' 
loop_
_atom_site_label
_atom_site_fract_x
_atom_site_fract_y
_atom_site_fract_z
Sc1	 0.650045	 0.013681	 0.500000 
Sc2	 0.769770	 0.111010	 0.000000 
Sc3	 0.682397	 0.134422	 0.500000 
Dy4	 0.830359	 0.030071	 0.017200 
Dy5	 0.796553	 0.168538	 0.517200 
Dy6	 0.709180	 0.191950	 0.982800 
Dy7	 0.742986	 0.053482	 0.482800 
Sc8	 0.562672	 0.037092	 0.000000 
Sc9	 0.475299	 0.060504	 0.500000 
Sc10	 0.595024	 0.157833	 0.000000 
Sc11	 0.507652	 0.181245	 0.500000 
Dy12	 0.655614	 0.076894	 0.017200 
Dy13	 0.621808	 0.215361	 0.517200 
Dy14	 0.534435	 0.238773	 0.982800 
Dy15	 0.568241	 0.100305	 0.482800 
Sc16	 0.387927	 0.083915	 0.000000 
Sc17	 0.300554	 0.107327	 0.500000 
Sc18	 0.420279	 0.204656	 0.000000 
Sc19	 0.332906	 0.228067	 0.500000 
Dy20	 0.480868	 0.123716	 0.017200 
Dy21	 0.447062	 0.262184	 0.517200 
Dy22	 0.359689	 0.285596	 0.982800 
Dy23	 0.393496	 0.147128	 0.482800 
Sc24	 0.213181	 0.130738	 0.000000 
Sc25	 0.125808	 0.154150	 0.500000 
Sc26	 0.245533	 0.251479	 0.000000 
Sc27	 0.158161	 0.274890	 0.500000 
Dy28	 0.306123	 0.170539	 0.017200 
Dy29	 0.272317	 0.309007	 0.517200 
Dy30	 0.184944	 0.332419	 0.982800 
Dy31	 0.218750	 0.193951	 0.482800 
Sc32	 0.038436	 0.177561	 0.000000 
Sc33	 0.070788	 0.298302	 0.000000 
Sc34	 0.857142	 0.087599	 0.500000 
Dy35	 0.131378	 0.217362	 0.017200 
Dy36	 0.097571	 0.355830	 0.517200 
Dy37	 0.010199	 0.379241	 0.982800 
Dy38	 0.044005	 0.240774	 0.482800 
Sc39	 0.802122	 0.231751	 0.000000 
Sc40	 0.714749	 0.255162	 0.500000 
Sc41	 0.834474	 0.352492	 0.000000 
Sc42	 0.747102	 0.375903	 0.500000 
Dy43	 0.895064	 0.271552	 0.017200 
Dy44	 0.861258	 0.410020	 0.517200 
Dy45	 0.773885	 0.433431	 0.982800 
Dy46	 0.807691	 0.294964	 0.482800 
Sc47	 0.627377	 0.278574	 0.000000 
Sc48	 0.540004	 0.301985	 0.500000 
Sc49	 0.659729	 0.399315	 0.000000 
Sc50	 0.572356	 0.422726	 0.500000 
Dy51	 0.720319	 0.318375	 0.017200 
Dy52	 0.686512	 0.456843	 0.517200 
Dy53	 0.599140	 0.480254	 0.982800 
Dy54	 0.632946	 0.341786	 0.482800 
Sc55	 0.452631	 0.325397	 0.000000 
Sc56	 0.365259	 0.348808	 0.500000 
Sc57	 0.484984	 0.446138	 0.000000 
Sc58	 0.397611	 0.469549	 0.500000 
Dy59	 0.545573	 0.365198	 0.017200 
Dy60	 0.511767	 0.503666	 0.517200 
Dy61	 0.424394	 0.527077	 0.982800 
Dy62	 0.458200	 0.388609	 0.482800 
Sc63	 0.277886	 0.372220	 0.000000 
Sc64	 0.190513	 0.395631	 0.500000 
Sc65	 0.310238	 0.492960	 0.000000 
Sc66	 0.222866	 0.516372	 0.500000 
Dy67	 0.370828	 0.412021	 0.017200 
Dy68	 0.337021	 0.550489	 0.517200 
Dy69	 0.249649	 0.573900	 0.982800 
Dy70	 0.283455	 0.435432	 0.482800 
Sc71	 0.103140	 0.419043	 0.000000 
Sc72	 0.889495	 0.208340	 0.500000 
Sc73	 0.135493	 0.539783	 0.000000 
Sc74	 0.921847	 0.329080	 0.500000 
Dy75	 0.196082	 0.458844	 0.017200 
Dy76	 0.162276	 0.597312	 0.517200 
Dy77	 0.074903	 0.620723	 0.982800 
Dy78	 0.108710	 0.482255	 0.482800 
Sc79	 0.866827	 0.473232	 0.000000 
Sc80	 0.779454	 0.496644	 0.500000 
Sc81	 0.899179	 0.593973	 0.000000 
Sc82	 0.811807	 0.617385	 0.500000 
Dy83	 0.959769	 0.513034	 0.017200 
Dy84	 0.925962	 0.651501	 0.517200 
Dy85	 0.838590	 0.674913	 0.982800 
Dy86	 0.872396	 0.536445	 0.482800 
Sc87	 0.692081	 0.520055	 0.000000 
Sc88	 0.604709	 0.543467	 0.500000 
Sc89	 0.724434	 0.640796	 0.000000 
Sc90	 0.637061	 0.664208	 0.500000 
Dy91	 0.785023	 0.559856	 0.017200 
Dy92	 0.751217	 0.698324	 0.517200 
Dy93	 0.663844	 0.721736	 0.982800 
Dy94	 0.697651	 0.583268	 0.482800 
Sc95	 0.517336	 0.566878	 0.000000 
Sc96	 0.429963	 0.590290	 0.500000 
Sc97	 0.549688	 0.687619	 0.000000 
Sc98	 0.462316	 0.711030	 0.500000 
Dy99	 0.610278	 0.606679	 0.017200 
Dy100	 0.576472	 0.745147	 0.517200 
Dy101	 0.489099	 0.768559	 0.982800 
Dy102	 0.522905	 0.630091	 0.482800 
Sc103	 0.342591	 0.613701	 0.000000 
Sc104	 0.255218	 0.637113	 0.500000 
Sc105	 0.374943	 0.734442	 0.000000 
Sc106	 0.287570	 0.757853	 0.500000 
Dy107	 0.435532	 0.653502	 0.017200 
Dy108	 0.401726	 0.791970	 0.517200 
Dy109	 0.314354	 0.815382	 0.982800 
Dy110	 0.348160	 0.676914	 0.482800 
Sc111	 0.167845	 0.660524	 0.000000 
Sc112	 0.954200	 0.449821	 0.500000 
Sc113	 0.200198	 0.781265	 0.000000 
Sc114	 0.986552	 0.570562	 0.500000 
Dy115	 0.260787	 0.700325	 0.017200 
Dy116	 0.226981	 0.838793	 0.517200 
Dy117	 0.139608	 0.862204	 0.982800 
Dy118	 0.173414	 0.723737	 0.482800 
Sc119	 0.931532	 0.714714	 0.000000 
Sc120	 0.844159	 0.738125	 0.500000 
Sc121	 0.963884	 0.835455	 0.000000 
Sc122	 0.876511	 0.858866	 0.500000 
Dy123	 0.937101	 0.777926	 0.482800 
Sc124	 0.756786	 0.761537	 0.000000 
Sc125	 0.669413	 0.784948	 0.500000 
Sc126	 0.789139	 0.882278	 0.000000 
Sc127	 0.701766	 0.905689	 0.500000 
Dy128	 0.849728	 0.801338	 0.017200 
Dy129	 0.762355	 0.824749	 0.482800 
Sc130	 0.582041	 0.808360	 0.000000 
Sc131	 0.494668	 0.831771	 0.500000 
Sc132	 0.614393	 0.929100	 0.000000 
Sc133	 0.527020	 0.952512	 0.500000 
Dy134	 0.674983	 0.848161	 0.017200 
Dy135	 0.382357	 0.020703	 0.517200 
Dy136	 0.294985	 0.044114	 0.982800 
Dy137	 0.587610	 0.871572	 0.482800 
Sc138	 0.407295	 0.855183	 0.000000 
Sc139	 0.319923	 0.878594	 0.500000 
Sc140	 0.439648	 0.975923	 0.000000 
Sc141	 0.352275	 0.999335	 0.500000 
Dy142	 0.500237	 0.894984	 0.017200 
Dy143	 0.207612	 0.067526	 0.517200 
Dy144	 0.120239	 0.090937	 0.982800 
Dy145	 0.412865	 0.918395	 0.482800 
Sc146	 0.232550	 0.902005	 0.000000 
Dy147	 0.325492	 0.941807	 0.017200 
Dy148	 0.032867	 0.114349	 0.517200 
Dy149	 0.238119	 0.965218	 0.482800 
#                 ---end-of-data-block---
