data_C:\Users\admin\Documents\atomsegmentation_bupt_fullsuite_3\misc\11023.cif
_cell_length_a               31.652800
_cell_length_b               31.652800
_cell_length_c               5.449400
_cell_angle_alpha          90.000000
_cell_angle_beta           90.000000
_cell_angle_gamma          90.000000
_symmetry_cell_setting          Triclinic
_symmetry_space_group_name_H-M 'P 1' 
loop_
_atom_site_label
_atom_site_fract_x
_atom_site_fract_y
_atom_site_fract_z
Sc1	 0.723650	 0.135798	 0.000000 
Sc2	 0.633195	 0.135798	 0.500000 
Sc3	 0.723650	 0.260798	 0.000000 
Sc4	 0.633195	 0.260798	 0.500000 
Dy5	 0.803123	 0.198298	 0.017200 
Dy6	 0.734631	 0.323298	 0.517200 
Dy7	 0.644176	 0.323298	 0.982800 
Dy8	 0.712668	 0.198298	 0.482800 
Sc9	 0.542740	 0.135798	 0.000000 
Sc10	 0.452285	 0.135798	 0.500000 
Sc11	 0.542740	 0.260798	 0.000000 
Sc12	 0.452285	 0.260798	 0.500000 
Dy13	 0.622213	 0.198298	 0.017200 
Dy14	 0.553721	 0.323298	 0.517200 
Dy15	 0.463266	 0.323298	 0.982800 
Dy16	 0.531759	 0.198298	 0.482800 
Sc17	 0.361830	 0.135798	 0.000000 
Sc18	 0.271375	 0.135798	 0.500000 
Sc19	 0.361830	 0.260798	 0.000000 
Sc20	 0.271375	 0.260798	 0.500000 
Dy21	 0.441304	 0.198298	 0.017200 
Dy22	 0.372811	 0.323298	 0.517200 
Dy23	 0.282356	 0.323298	 0.982800 
Dy24	 0.350849	 0.198298	 0.482800 
Sc25	 0.180920	 0.135798	 0.000000 
Sc26	 0.090465	 0.135798	 0.500000 
Sc27	 0.180920	 0.260798	 0.000000 
Sc28	 0.090465	 0.260798	 0.500000 
Dy29	 0.260394	 0.198298	 0.017200 
Dy30	 0.191902	 0.323298	 0.517200 
Dy31	 0.101447	 0.323298	 0.982800 
Dy32	 0.169939	 0.198298	 0.482800 
Sc33	 0.904559	 0.135798	 0.000000 
Sc34	 0.814104	 0.135798	 0.500000 
Sc35	 0.904559	 0.260798	 0.000000 
Sc36	 0.814104	 0.260798	 0.500000 
Dy37	 0.079484	 0.198298	 0.017200 
Dy38	 0.915541	 0.323298	 0.517200 
Dy39	 0.825086	 0.323298	 0.982800 
Dy40	 0.893578	 0.198298	 0.482800 
Sc41	 0.723650	 0.385798	 0.000000 
Sc42	 0.633195	 0.385798	 0.500000 
Sc43	 0.723650	 0.510798	 0.000000 
Sc44	 0.633195	 0.510798	 0.500000 
Dy45	 0.803123	 0.448298	 0.017200 
Dy46	 0.734631	 0.573298	 0.517200 
Dy47	 0.644176	 0.573298	 0.982800 
Dy48	 0.712668	 0.448298	 0.482800 
Sc49	 0.542740	 0.385798	 0.000000 
Sc50	 0.452285	 0.385798	 0.500000 
Sc51	 0.542740	 0.510798	 0.000000 
Sc52	 0.452285	 0.510798	 0.500000 
Dy53	 0.622213	 0.448298	 0.017200 
Dy54	 0.553721	 0.573298	 0.517200 
Dy55	 0.463266	 0.573298	 0.982800 
Dy56	 0.531759	 0.448298	 0.482800 
Sc57	 0.361830	 0.385798	 0.000000 
Sc58	 0.271375	 0.385798	 0.500000 
Sc59	 0.361830	 0.510798	 0.000000 
Sc60	 0.271375	 0.510798	 0.500000 
Dy61	 0.441304	 0.448298	 0.017200 
Dy62	 0.372811	 0.573298	 0.517200 
Dy63	 0.282356	 0.573298	 0.982800 
Dy64	 0.350849	 0.448298	 0.482800 
Sc65	 0.180920	 0.385798	 0.000000 
Sc66	 0.090465	 0.385798	 0.500000 
Sc67	 0.180920	 0.510798	 0.000000 
Sc68	 0.090465	 0.510798	 0.500000 
Dy69	 0.260394	 0.448298	 0.017200 
Dy70	 0.191902	 0.573298	 0.517200 
Dy71	 0.101447	 0.573298	 0.982800 
Dy72	 0.169939	 0.448298	 0.482800 
Sc73	 0.904559	 0.385798	 0.000000 
Sc74	 0.814104	 0.385798	 0.500000 
Sc75	 0.904559	 0.510798	 0.000000 
Sc76	 0.814104	 0.510798	 0.500000 
Dy77	 0.079484	 0.448298	 0.017200 
Dy78	 0.915541	 0.573298	 0.517200 
Dy79	 0.825086	 0.573298	 0.982800 
Dy80	 0.893578	 0.448298	 0.482800 
Sc81	 0.723650	 0.635798	 0.000000 
Sc82	 0.633195	 0.635798	 0.500000 
Sc83	 0.723650	 0.760798	 0.000000 
Sc84	 0.633195	 0.760798	 0.500000 
Dy85	 0.803123	 0.698298	 0.017200 
Dy86	 0.734631	 0.823298	 0.517200 
Dy87	 0.644176	 0.823298	 0.982800 
Dy88	 0.712668	 0.698298	 0.482800 
Sc89	 0.542740	 0.635798	 0.000000 
Sc90	 0.452285	 0.635798	 0.500000 
Sc91	 0.542740	 0.760798	 0.000000 
Sc92	 0.452285	 0.760798	 0.500000 
Dy93	 0.622213	 0.698298	 0.017200 
Dy94	 0.553721	 0.823298	 0.517200 
Dy95	 0.463266	 0.823298	 0.982800 
Dy96	 0.531759	 0.698298	 0.482800 
Sc97	 0.361830	 0.635798	 0.000000 
Sc98	 0.271375	 0.635798	 0.500000 
Sc99	 0.361830	 0.760798	 0.000000 
Sc100	 0.271375	 0.760798	 0.500000 
Dy101	 0.441304	 0.698298	 0.017200 
Dy102	 0.372811	 0.823298	 0.517200 
Dy103	 0.282356	 0.823298	 0.982800 
Dy104	 0.350849	 0.698298	 0.482800 
Sc105	 0.180920	 0.635798	 0.000000 
Sc106	 0.090465	 0.635798	 0.500000 
Sc107	 0.180920	 0.760798	 0.000000 
Sc108	 0.090465	 0.760798	 0.500000 
Dy109	 0.260394	 0.698298	 0.017200 
Dy110	 0.191902	 0.823298	 0.517200 
Dy111	 0.101447	 0.823298	 0.982800 
Dy112	 0.169939	 0.698298	 0.482800 
Sc113	 0.904559	 0.635798	 0.000000 
Sc114	 0.814104	 0.635798	 0.500000 
Sc115	 0.904559	 0.760798	 0.000000 
Sc116	 0.814104	 0.760798	 0.500000 
Dy117	 0.079484	 0.698298	 0.017200 
Dy118	 0.915541	 0.823298	 0.517200 
Dy119	 0.825086	 0.823298	 0.982800 
Dy120	 0.893578	 0.698298	 0.482800 
Sc121	 0.723650	 0.885798	 0.000000 
Sc122	 0.633195	 0.885798	 0.500000 
Sc123	 0.723650	 0.010798	 0.000000 
Sc124	 0.633195	 0.010798	 0.500000 
Dy125	 0.803123	 0.948298	 0.017200 
Dy126	 0.734631	 0.073298	 0.517200 
Dy127	 0.644176	 0.073298	 0.982800 
Dy128	 0.712668	 0.948298	 0.482800 
Sc129	 0.542740	 0.885798	 0.000000 
Sc130	 0.452285	 0.885798	 0.500000 
Sc131	 0.542740	 0.010798	 0.000000 
Sc132	 0.452285	 0.010798	 0.500000 
Dy133	 0.622213	 0.948298	 0.017200 
Dy134	 0.553721	 0.073298	 0.517200 
Dy135	 0.463266	 0.073298	 0.982800 
Dy136	 0.531759	 0.948298	 0.482800 
Sc137	 0.361830	 0.885798	 0.000000 
Sc138	 0.271375	 0.885798	 0.500000 
Sc139	 0.361830	 0.010798	 0.000000 
Sc140	 0.271375	 0.010798	 0.500000 
Dy141	 0.441304	 0.948298	 0.017200 
Dy142	 0.372811	 0.073298	 0.517200 
Dy143	 0.282356	 0.073298	 0.982800 
Dy144	 0.350849	 0.948298	 0.482800 
Sc145	 0.180920	 0.885798	 0.000000 
Sc146	 0.090465	 0.885798	 0.500000 
Sc147	 0.180920	 0.010798	 0.000000 
Sc148	 0.090465	 0.010798	 0.500000 
Dy149	 0.260394	 0.948298	 0.017200 
Dy150	 0.191902	 0.073298	 0.517200 
Dy151	 0.101447	 0.073298	 0.982800 
Dy152	 0.169939	 0.948298	 0.482800 
Sc153	 0.904559	 0.885798	 0.000000 
Sc154	 0.814104	 0.885798	 0.500000 
Sc155	 0.904559	 0.010798	 0.000000 
Sc156	 0.814104	 0.010798	 0.500000 
Dy157	 0.079484	 0.948298	 0.017200 
Dy158	 0.915541	 0.073298	 0.517200 
Dy159	 0.825086	 0.073298	 0.982800 
Dy160	 0.893578	 0.948298	 0.482800 
#                 ---end-of-data-block---
