data_Single Layer of MoS2nx 10 ny 6 nz 1
_cell_length_a               32.423991
_cell_length_b               32.423991
_cell_length_c               3.080000
_cell_angle_alpha          90.000000
_cell_angle_beta           90.000000
_cell_angle_gamma          90.000000
_symmetry_cell_setting          Triclinic
_symmetry_space_group_name_H-M 'P 1' 
loop_
_atom_site_label
_atom_site_fract_x
_atom_site_fract_y
_atom_site_fract_z
S1	 0.170390	 0.000433	 1.000000 
S2	 0.170390	 0.000433	 0.000000 
Mo3	 0.141632	 0.107758	 0.500000 
Mo4	 0.209674	 0.039717	 0.500000 
S5	 0.195295	 0.093379	 1.000000 
S6	 0.195295	 0.093379	 0.000000 
S7	 0.127253	 0.161421	 1.000000 
S8	 0.127253	 0.161421	 0.000000 
Mo9	 0.098496	 0.268746	 0.500000 
Mo10	 0.166537	 0.200704	 0.500000 
S11	 0.152158	 0.254367	 1.000000 
S12	 0.152158	 0.254367	 0.000000 
S13	 0.084117	 0.322408	 1.000000 
S14	 0.084117	 0.322408	 0.000000 
Mo15	 0.055359	 0.429733	 0.500000 
Mo16	 0.123401	 0.361692	 0.500000 
S17	 0.109022	 0.415355	 1.000000 
S18	 0.109022	 0.415355	 0.000000 
S19	 0.040980	 0.483396	 1.000000 
S20	 0.040980	 0.483396	 0.000000 
Mo21	 0.012223	 0.590721	 0.500000 
Mo22	 0.080264	 0.522680	 0.500000 
S23	 0.065885	 0.576342	 1.000000 
S24	 0.065885	 0.576342	 0.000000 
Mo25	 0.037128	 0.683667	 0.500000 
S26	 0.022749	 0.737330	 1.000000 
S27	 0.022749	 0.737330	 0.000000 
S28	 0.263336	 0.025338	 1.000000 
S29	 0.263336	 0.025338	 0.000000 
Mo30	 0.234579	 0.132663	 0.500000 
Mo31	 0.302620	 0.064622	 0.500000 
S32	 0.288241	 0.118284	 1.000000 
S33	 0.288241	 0.118284	 0.000000 
S34	 0.220200	 0.186326	 1.000000 
S35	 0.220200	 0.186326	 0.000000 
Mo36	 0.191442	 0.293651	 0.500000 
Mo37	 0.259483	 0.225609	 0.500000 
S38	 0.245105	 0.279272	 1.000000 
S39	 0.245105	 0.279272	 0.000000 
S40	 0.177063	 0.347313	 1.000000 
S41	 0.177063	 0.347313	 0.000000 
Mo42	 0.148306	 0.454638	 0.500000 
Mo43	 0.216347	 0.386597	 0.500000 
S44	 0.201968	 0.440259	 1.000000 
S45	 0.201968	 0.440259	 0.000000 
S46	 0.133927	 0.508301	 1.000000 
S47	 0.133927	 0.508301	 0.000000 
Mo48	 0.105169	 0.615626	 0.500000 
Mo49	 0.173210	 0.547585	 0.500000 
S50	 0.158832	 0.601247	 1.000000 
S51	 0.158832	 0.601247	 0.000000 
S52	 0.090790	 0.669288	 1.000000 
S53	 0.090790	 0.669288	 0.000000 
Mo54	 0.062033	 0.776614	 0.500000 
Mo55	 0.130074	 0.708572	 0.500000 
S56	 0.115695	 0.762235	 1.000000 
S57	 0.115695	 0.762235	 0.000000 
S58	 0.047654	 0.830276	 1.000000 
S59	 0.047654	 0.830276	 0.000000 
Mo60	 0.086937	 0.869560	 0.500000 
S61	 0.356282	 0.050243	 1.000000 
S62	 0.356282	 0.050243	 0.000000 
Mo63	 0.327525	 0.157568	 0.500000 
Mo64	 0.395566	 0.089526	 0.500000 
S65	 0.381187	 0.143189	 1.000000 
S66	 0.381187	 0.143189	 0.000000 
S67	 0.313146	 0.211230	 1.000000 
S68	 0.313146	 0.211230	 0.000000 
Mo69	 0.284388	 0.318555	 0.500000 
Mo70	 0.352430	 0.250514	 0.500000 
S71	 0.338051	 0.304177	 1.000000 
S72	 0.338051	 0.304177	 0.000000 
S73	 0.270009	 0.372218	 1.000000 
S74	 0.270009	 0.372218	 0.000000 
Mo75	 0.241252	 0.479543	 0.500000 
Mo76	 0.309293	 0.411502	 0.500000 
S77	 0.294914	 0.465164	 1.000000 
S78	 0.294914	 0.465164	 0.000000 
S79	 0.226873	 0.533206	 1.000000 
S80	 0.226873	 0.533206	 0.000000 
Mo81	 0.198115	 0.640531	 0.500000 
Mo82	 0.266157	 0.572489	 0.500000 
S83	 0.251778	 0.626152	 1.000000 
S84	 0.251778	 0.626152	 0.000000 
S85	 0.183736	 0.694193	 1.000000 
S86	 0.183736	 0.694193	 0.000000 
Mo87	 0.154979	 0.801518	 0.500000 
Mo88	 0.223020	 0.733477	 0.500000 
S89	 0.208641	 0.787140	 1.000000 
S90	 0.208641	 0.787140	 0.000000 
S91	 0.140600	 0.855181	 1.000000 
S92	 0.140600	 0.855181	 0.000000 
Mo93	 0.179884	 0.894465	 0.500000 
S94	 0.449229	 0.075148	 1.000000 
S95	 0.449229	 0.075148	 0.000000 
Mo96	 0.420471	 0.182473	 0.500000 
Mo97	 0.488512	 0.114431	 0.500000 
S98	 0.474134	 0.168094	 1.000000 
S99	 0.474134	 0.168094	 0.000000 
S100	 0.406092	 0.236135	 1.000000 
S101	 0.406092	 0.236135	 0.000000 
Mo102	 0.377335	 0.343460	 0.500000 
Mo103	 0.445376	 0.275419	 0.500000 
S104	 0.430997	 0.329082	 1.000000 
S105	 0.430997	 0.329082	 0.000000 
S106	 0.362956	 0.397123	 1.000000 
S107	 0.362956	 0.397123	 0.000000 
Mo108	 0.334198	 0.504448	 0.500000 
Mo109	 0.402239	 0.436407	 0.500000 
S110	 0.387861	 0.490069	 1.000000 
S111	 0.387861	 0.490069	 0.000000 
S112	 0.319819	 0.558111	 1.000000 
S113	 0.319819	 0.558111	 0.000000 
Mo114	 0.291062	 0.665436	 0.500000 
Mo115	 0.359103	 0.597394	 0.500000 
S116	 0.344724	 0.651057	 1.000000 
S117	 0.344724	 0.651057	 0.000000 
S118	 0.276683	 0.719098	 1.000000 
S119	 0.276683	 0.719098	 0.000000 
Mo120	 0.247925	 0.826423	 0.500000 
Mo121	 0.315966	 0.758382	 0.500000 
S122	 0.301588	 0.812044	 1.000000 
S123	 0.301588	 0.812044	 0.000000 
S124	 0.233546	 0.880086	 1.000000 
S125	 0.233546	 0.880086	 0.000000 
Mo126	 0.463608	 0.021485	 0.500000 
Mo127	 0.272830	 0.919370	 0.500000 
S128	 0.517270	 0.007106	 1.000000 
S129	 0.517270	 0.007106	 0.000000 
S130	 0.542175	 0.100053	 1.000000 
S131	 0.542175	 0.100053	 0.000000 
Mo132	 0.513417	 0.207378	 0.500000 
Mo133	 0.581459	 0.139336	 0.500000 
S134	 0.567080	 0.192999	 1.000000 
S135	 0.567080	 0.192999	 0.000000 
S136	 0.499038	 0.261040	 1.000000 
S137	 0.499038	 0.261040	 0.000000 
Mo138	 0.470281	 0.368365	 0.500000 
Mo139	 0.538322	 0.300324	 0.500000 
S140	 0.523943	 0.353986	 1.000000 
S141	 0.523943	 0.353986	 0.000000 
S142	 0.455902	 0.422028	 1.000000 
S143	 0.455902	 0.422028	 0.000000 
Mo144	 0.427144	 0.529353	 0.500000 
Mo145	 0.495186	 0.461311	 0.500000 
S146	 0.480807	 0.514974	 1.000000 
S147	 0.480807	 0.514974	 0.000000 
S148	 0.412765	 0.583015	 1.000000 
S149	 0.412765	 0.583015	 0.000000 
Mo150	 0.384008	 0.690341	 0.500000 
Mo151	 0.452049	 0.622299	 0.500000 
S152	 0.437670	 0.675962	 1.000000 
S153	 0.437670	 0.675962	 0.000000 
S154	 0.369629	 0.744003	 1.000000 
S155	 0.369629	 0.744003	 0.000000 
Mo156	 0.340871	 0.851328	 0.500000 
Mo157	 0.408913	 0.783287	 0.500000 
S158	 0.394534	 0.836949	 1.000000 
S159	 0.394534	 0.836949	 0.000000 
S160	 0.326492	 0.904991	 1.000000 
S161	 0.326492	 0.904991	 0.000000 
Mo162	 0.556554	 0.046390	 0.500000 
Mo163	 0.365776	 0.944274	 0.500000 
S164	 0.610216	 0.032011	 1.000000 
S165	 0.610216	 0.032011	 0.000000 
S166	 0.635121	 0.124957	 1.000000 
S167	 0.635121	 0.124957	 0.000000 
Mo168	 0.606364	 0.232282	 0.500000 
Mo169	 0.674405	 0.164241	 0.500000 
S170	 0.660026	 0.217904	 1.000000 
S171	 0.660026	 0.217904	 0.000000 
S172	 0.591985	 0.285945	 1.000000 
S173	 0.591985	 0.285945	 0.000000 
Mo174	 0.563227	 0.393270	 0.500000 
Mo175	 0.631268	 0.325229	 0.500000 
S176	 0.616890	 0.378891	 1.000000 
S177	 0.616890	 0.378891	 0.000000 
S178	 0.548848	 0.446933	 1.000000 
S179	 0.548848	 0.446933	 0.000000 
Mo180	 0.520091	 0.554258	 0.500000 
Mo181	 0.588132	 0.486216	 0.500000 
S182	 0.573753	 0.539879	 1.000000 
S183	 0.573753	 0.539879	 0.000000 
S184	 0.505712	 0.607920	 1.000000 
S185	 0.505712	 0.607920	 0.000000 
Mo186	 0.476954	 0.715245	 0.500000 
Mo187	 0.544995	 0.647204	 0.500000 
S188	 0.530617	 0.700867	 1.000000 
S189	 0.530617	 0.700867	 0.000000 
S190	 0.462575	 0.768908	 1.000000 
S191	 0.462575	 0.768908	 0.000000 
Mo192	 0.433818	 0.876233	 0.500000 
Mo193	 0.501859	 0.808192	 0.500000 
S194	 0.487480	 0.861854	 1.000000 
S195	 0.487480	 0.861854	 0.000000 
S196	 0.419439	 0.929896	 1.000000 
S197	 0.419439	 0.929896	 0.000000 
Mo198	 0.649500	 0.071295	 0.500000 
Mo199	 0.458722	 0.969179	 0.500000 
S200	 0.703163	 0.056916	 1.000000 
S201	 0.703163	 0.056916	 0.000000 
S202	 0.728068	 0.149862	 1.000000 
S203	 0.728068	 0.149862	 0.000000 
Mo204	 0.699310	 0.257187	 0.500000 
Mo205	 0.767351	 0.189146	 0.500000 
S206	 0.752972	 0.242809	 1.000000 
S207	 0.752972	 0.242809	 0.000000 
S208	 0.684931	 0.310850	 1.000000 
S209	 0.684931	 0.310850	 0.000000 
Mo210	 0.656173	 0.418175	 0.500000 
Mo211	 0.724215	 0.350134	 0.500000 
S212	 0.709836	 0.403796	 1.000000 
S213	 0.709836	 0.403796	 0.000000 
S214	 0.641794	 0.471838	 1.000000 
S215	 0.641794	 0.471838	 0.000000 
Mo216	 0.613037	 0.579163	 0.500000 
Mo217	 0.681078	 0.511121	 0.500000 
S218	 0.666699	 0.564784	 1.000000 
S219	 0.666699	 0.564784	 0.000000 
S220	 0.598658	 0.632825	 1.000000 
S221	 0.598658	 0.632825	 0.000000 
Mo222	 0.569900	 0.740150	 0.500000 
Mo223	 0.637942	 0.672109	 0.500000 
S224	 0.623563	 0.725771	 1.000000 
S225	 0.623563	 0.725771	 0.000000 
S226	 0.555521	 0.793813	 1.000000 
S227	 0.555521	 0.793813	 0.000000 
Mo228	 0.526764	 0.901138	 0.500000 
Mo229	 0.594805	 0.833097	 0.500000 
S230	 0.580426	 0.886759	 1.000000 
S231	 0.580426	 0.886759	 0.000000 
S232	 0.512385	 0.954800	 1.000000 
S233	 0.512385	 0.954800	 0.000000 
Mo234	 0.742446	 0.096200	 0.500000 
Mo235	 0.551669	 0.994084	 0.500000 
S236	 0.796109	 0.081821	 1.000000 
S237	 0.796109	 0.081821	 0.000000 
S238	 0.821014	 0.174767	 1.000000 
S239	 0.821014	 0.174767	 0.000000 
Mo240	 0.792256	 0.282092	 0.500000 
Mo241	 0.860297	 0.214051	 0.500000 
S242	 0.845919	 0.267713	 1.000000 
S243	 0.845919	 0.267713	 0.000000 
S244	 0.777877	 0.335755	 1.000000 
S245	 0.777877	 0.335755	 0.000000 
Mo246	 0.749120	 0.443080	 0.500000 
Mo247	 0.817161	 0.375038	 0.500000 
S248	 0.802782	 0.428701	 1.000000 
S249	 0.802782	 0.428701	 0.000000 
S250	 0.734741	 0.496742	 1.000000 
S251	 0.734741	 0.496742	 0.000000 
Mo252	 0.705983	 0.604067	 0.500000 
Mo253	 0.774024	 0.536026	 0.500000 
S254	 0.759646	 0.589689	 1.000000 
S255	 0.759646	 0.589689	 0.000000 
S256	 0.691604	 0.657730	 1.000000 
S257	 0.691604	 0.657730	 0.000000 
Mo258	 0.662847	 0.765055	 0.500000 
Mo259	 0.730888	 0.697014	 0.500000 
S260	 0.716509	 0.750676	 1.000000 
S261	 0.716509	 0.750676	 0.000000 
S262	 0.648468	 0.818718	 1.000000 
S263	 0.648468	 0.818718	 0.000000 
Mo264	 0.619710	 0.926043	 0.500000 
Mo265	 0.687751	 0.858001	 0.500000 
S266	 0.673373	 0.911664	 1.000000 
S267	 0.673373	 0.911664	 0.000000 
S268	 0.605331	 0.979705	 1.000000 
S269	 0.605331	 0.979705	 0.000000 
Mo270	 0.835393	 0.121105	 0.500000 
S271	 0.889055	 0.106726	 1.000000 
S272	 0.889055	 0.106726	 0.000000 
S273	 0.913960	 0.199672	 1.000000 
S274	 0.913960	 0.199672	 0.000000 
Mo275	 0.885202	 0.306997	 0.500000 
Mo276	 0.953244	 0.238956	 0.500000 
S277	 0.938865	 0.292618	 1.000000 
S278	 0.938865	 0.292618	 0.000000 
S279	 0.870824	 0.360660	 1.000000 
S280	 0.870824	 0.360660	 0.000000 
Mo281	 0.842066	 0.467985	 0.500000 
Mo282	 0.910107	 0.399943	 0.500000 
S283	 0.895728	 0.453606	 1.000000 
S284	 0.895728	 0.453606	 0.000000 
S285	 0.827687	 0.521647	 1.000000 
S286	 0.827687	 0.521647	 0.000000 
Mo287	 0.798929	 0.628972	 0.500000 
Mo288	 0.866971	 0.560931	 0.500000 
S289	 0.852592	 0.614594	 1.000000 
S290	 0.852592	 0.614594	 0.000000 
S291	 0.784550	 0.682635	 1.000000 
S292	 0.784550	 0.682635	 0.000000 
Mo293	 0.755793	 0.789960	 0.500000 
Mo294	 0.823834	 0.721919	 0.500000 
S295	 0.809455	 0.775581	 1.000000 
S296	 0.809455	 0.775581	 0.000000 
S297	 0.741414	 0.843623	 1.000000 
S298	 0.741414	 0.843623	 0.000000 
Mo299	 0.712656	 0.950948	 0.500000 
Mo300	 0.780698	 0.882906	 0.500000 
S301	 0.766319	 0.936569	 1.000000 
S302	 0.766319	 0.936569	 0.000000 
Mo303	 0.928339	 0.146009	 0.500000 
S304	 0.982001	 0.131631	 1.000000 
S305	 0.982001	 0.131631	 0.000000 
Mo306	 0.978149	 0.331902	 0.500000 
S307	 0.963770	 0.385565	 1.000000 
S308	 0.963770	 0.385565	 0.000000 
Mo309	 0.935012	 0.492890	 0.500000 
S310	 0.988675	 0.478511	 1.000000 
S311	 0.988675	 0.478511	 0.000000 
S312	 0.920633	 0.546552	 1.000000 
S313	 0.920633	 0.546552	 0.000000 
Mo314	 0.891876	 0.653877	 0.500000 
Mo315	 0.959917	 0.585836	 0.500000 
S316	 0.945538	 0.639498	 1.000000 
S317	 0.945538	 0.639498	 0.000000 
S318	 0.877497	 0.707540	 1.000000 
S319	 0.877497	 0.707540	 0.000000 
Mo320	 0.848739	 0.814865	 0.500000 
Mo321	 0.916780	 0.746823	 0.500000 
S322	 0.902402	 0.800486	 1.000000 
S323	 0.902402	 0.800486	 0.000000 
S324	 0.834360	 0.868527	 1.000000 
S325	 0.834360	 0.868527	 0.000000 
Mo326	 0.805603	 0.975853	 0.500000 
Mo327	 0.873644	 0.907811	 0.500000 
S328	 0.859265	 0.961474	 1.000000 
S329	 0.859265	 0.961474	 0.000000 
#                 ---end-of-data-block---
