data_Single Layer of MoS2nx 10 ny 6 nz 1
_cell_length_a               32.423991
_cell_length_b               32.423991
_cell_length_c               3.080000
_cell_angle_alpha          90.000000
_cell_angle_beta           90.000000
_cell_angle_gamma          90.000000
_symmetry_cell_setting          Triclinic
_symmetry_space_group_name_H-M 'P 1' 
loop_
_atom_site_label
_atom_site_fract_x
_atom_site_fract_y
_atom_site_fract_z
Mo1	 0.210347	 0.085606	 0.500000 
Mo2	 0.278388	 0.017564	 0.500000 
S3	 0.264009	 0.071227	 1.000000 
S4	 0.264009	 0.071227	 0.000000 
S5	 0.195968	 0.139268	 1.000000 
S6	 0.195968	 0.139268	 0.000000 
Mo7	 0.167210	 0.246593	 0.500000 
Mo8	 0.235252	 0.178552	 0.500000 
S9	 0.220873	 0.232214	 1.000000 
S10	 0.220873	 0.232214	 0.000000 
S11	 0.152831	 0.300256	 1.000000 
S12	 0.152831	 0.300256	 0.000000 
Mo13	 0.124074	 0.407581	 0.500000 
Mo14	 0.192115	 0.339540	 0.500000 
S15	 0.177736	 0.393202	 1.000000 
S16	 0.177736	 0.393202	 0.000000 
S17	 0.109695	 0.461243	 1.000000 
S18	 0.109695	 0.461243	 0.000000 
Mo19	 0.080937	 0.568569	 0.500000 
Mo20	 0.148979	 0.500527	 0.500000 
S21	 0.134600	 0.554190	 1.000000 
S22	 0.134600	 0.554190	 0.000000 
S23	 0.066558	 0.622231	 1.000000 
S24	 0.066558	 0.622231	 0.000000 
Mo25	 0.037801	 0.729556	 0.500000 
Mo26	 0.105842	 0.661515	 0.500000 
S27	 0.091463	 0.715177	 1.000000 
S28	 0.091463	 0.715177	 0.000000 
S29	 0.023422	 0.783219	 1.000000 
S30	 0.023422	 0.783219	 0.000000 
Mo31	 0.062706	 0.822502	 0.500000 
S32	 0.048327	 0.876165	 1.000000 
S33	 0.048327	 0.876165	 0.000000 
S34	 0.332051	 0.003185	 1.000000 
S35	 0.332051	 0.003185	 0.000000 
Mo36	 0.303293	 0.110511	 0.500000 
Mo37	 0.371334	 0.042469	 0.500000 
S38	 0.356956	 0.096132	 1.000000 
S39	 0.356956	 0.096132	 0.000000 
S40	 0.288914	 0.164173	 1.000000 
S41	 0.288914	 0.164173	 0.000000 
Mo42	 0.260156	 0.271498	 0.500000 
Mo43	 0.328198	 0.203457	 0.500000 
S44	 0.313819	 0.257119	 1.000000 
S45	 0.313819	 0.257119	 0.000000 
S46	 0.245778	 0.325161	 1.000000 
S47	 0.245778	 0.325161	 0.000000 
Mo48	 0.217020	 0.432486	 0.500000 
Mo49	 0.285061	 0.364444	 0.500000 
S50	 0.270683	 0.418107	 1.000000 
S51	 0.270683	 0.418107	 0.000000 
S52	 0.202641	 0.486148	 1.000000 
S53	 0.202641	 0.486148	 0.000000 
Mo54	 0.173883	 0.593473	 0.500000 
Mo55	 0.241925	 0.525432	 0.500000 
S56	 0.227546	 0.579095	 1.000000 
S57	 0.227546	 0.579095	 0.000000 
S58	 0.159505	 0.647136	 1.000000 
S59	 0.159505	 0.647136	 0.000000 
Mo60	 0.130747	 0.754461	 0.500000 
Mo61	 0.198788	 0.686420	 0.500000 
S62	 0.184409	 0.740082	 1.000000 
S63	 0.184409	 0.740082	 0.000000 
S64	 0.116368	 0.808124	 1.000000 
S65	 0.116368	 0.808124	 0.000000 
Mo66	 0.155652	 0.847407	 0.500000 
S67	 0.141273	 0.901070	 1.000000 
S68	 0.141273	 0.901070	 0.000000 
S69	 0.424997	 0.028090	 1.000000 
S70	 0.424997	 0.028090	 0.000000 
Mo71	 0.396239	 0.135415	 0.500000 
Mo72	 0.464281	 0.067374	 0.500000 
S73	 0.449902	 0.121037	 1.000000 
S74	 0.449902	 0.121037	 0.000000 
S75	 0.381860	 0.189078	 1.000000 
S76	 0.381860	 0.189078	 0.000000 
Mo77	 0.353103	 0.296403	 0.500000 
Mo78	 0.421144	 0.228362	 0.500000 
S79	 0.406765	 0.282024	 1.000000 
S80	 0.406765	 0.282024	 0.000000 
S81	 0.338724	 0.350066	 1.000000 
S82	 0.338724	 0.350066	 0.000000 
Mo83	 0.309966	 0.457391	 0.500000 
Mo84	 0.378008	 0.389349	 0.500000 
S85	 0.363629	 0.443012	 1.000000 
S86	 0.363629	 0.443012	 0.000000 
S87	 0.295587	 0.511053	 1.000000 
S88	 0.295587	 0.511053	 0.000000 
Mo89	 0.266830	 0.618378	 0.500000 
Mo90	 0.334871	 0.550337	 0.500000 
S91	 0.320492	 0.603999	 1.000000 
S92	 0.320492	 0.603999	 0.000000 
S93	 0.252451	 0.672041	 1.000000 
S94	 0.252451	 0.672041	 0.000000 
Mo95	 0.223693	 0.779366	 0.500000 
Mo96	 0.291735	 0.711325	 0.500000 
S97	 0.277356	 0.764987	 1.000000 
S98	 0.277356	 0.764987	 0.000000 
S99	 0.209314	 0.833029	 1.000000 
S100	 0.209314	 0.833029	 0.000000 
Mo101	 0.248598	 0.872312	 0.500000 
S102	 0.234219	 0.925975	 1.000000 
S103	 0.234219	 0.925975	 0.000000 
S104	 0.517943	 0.052995	 1.000000 
S105	 0.517943	 0.052995	 0.000000 
Mo106	 0.489185	 0.160320	 0.500000 
Mo107	 0.557227	 0.092279	 0.500000 
S108	 0.542848	 0.145941	 1.000000 
S109	 0.542848	 0.145941	 0.000000 
S110	 0.474807	 0.213983	 1.000000 
S111	 0.474807	 0.213983	 0.000000 
Mo112	 0.446049	 0.321308	 0.500000 
Mo113	 0.514090	 0.253267	 0.500000 
S114	 0.499712	 0.306929	 1.000000 
S115	 0.499712	 0.306929	 0.000000 
S116	 0.431670	 0.374970	 1.000000 
S117	 0.431670	 0.374970	 0.000000 
Mo118	 0.402912	 0.482296	 0.500000 
Mo119	 0.470954	 0.414254	 0.500000 
S120	 0.456575	 0.467917	 1.000000 
S121	 0.456575	 0.467917	 0.000000 
S122	 0.388534	 0.535958	 1.000000 
S123	 0.388534	 0.535958	 0.000000 
Mo124	 0.359776	 0.643283	 0.500000 
Mo125	 0.427817	 0.575242	 0.500000 
S126	 0.413439	 0.628904	 1.000000 
S127	 0.413439	 0.628904	 0.000000 
S128	 0.345397	 0.696946	 1.000000 
S129	 0.345397	 0.696946	 0.000000 
Mo130	 0.316639	 0.804271	 0.500000 
Mo131	 0.384681	 0.736229	 0.500000 
S132	 0.370302	 0.789892	 1.000000 
S133	 0.370302	 0.789892	 0.000000 
S134	 0.302261	 0.857933	 1.000000 
S135	 0.302261	 0.857933	 0.000000 
Mo136	 0.341544	 0.897217	 0.500000 
S137	 0.327165	 0.950880	 1.000000 
S138	 0.327165	 0.950880	 0.000000 
S139	 0.610889	 0.077900	 1.000000 
S140	 0.610889	 0.077900	 0.000000 
Mo141	 0.582132	 0.185225	 0.500000 
Mo142	 0.650173	 0.117184	 0.500000 
S143	 0.635794	 0.170846	 1.000000 
S144	 0.635794	 0.170846	 0.000000 
S145	 0.567753	 0.238888	 1.000000 
S146	 0.567753	 0.238888	 0.000000 
Mo147	 0.538995	 0.346213	 0.500000 
Mo148	 0.607037	 0.278171	 0.500000 
S149	 0.592658	 0.331834	 1.000000 
S150	 0.592658	 0.331834	 0.000000 
S151	 0.524616	 0.399875	 1.000000 
S152	 0.524616	 0.399875	 0.000000 
Mo153	 0.495859	 0.507200	 0.500000 
Mo154	 0.563900	 0.439159	 0.500000 
S155	 0.549521	 0.492822	 1.000000 
S156	 0.549521	 0.492822	 0.000000 
S157	 0.481480	 0.560863	 1.000000 
S158	 0.481480	 0.560863	 0.000000 
Mo159	 0.452722	 0.668188	 0.500000 
Mo160	 0.520764	 0.600147	 0.500000 
S161	 0.506385	 0.653809	 1.000000 
S162	 0.506385	 0.653809	 0.000000 
S163	 0.438343	 0.721851	 1.000000 
S164	 0.438343	 0.721851	 0.000000 
Mo165	 0.409586	 0.829176	 0.500000 
Mo166	 0.477627	 0.761134	 0.500000 
S167	 0.463248	 0.814797	 1.000000 
S168	 0.463248	 0.814797	 0.000000 
S169	 0.395207	 0.882838	 1.000000 
S170	 0.395207	 0.882838	 0.000000 
Mo171	 0.625268	 0.024238	 0.500000 
Mo172	 0.434491	 0.922122	 0.500000 
S173	 0.420112	 0.975785	 1.000000 
S174	 0.420112	 0.975785	 0.000000 
S175	 0.703836	 0.102805	 1.000000 
S176	 0.703836	 0.102805	 0.000000 
Mo177	 0.675078	 0.210130	 0.500000 
Mo178	 0.743119	 0.142089	 0.500000 
S179	 0.728741	 0.195751	 1.000000 
S180	 0.728741	 0.195751	 0.000000 
S181	 0.660699	 0.263793	 1.000000 
S182	 0.660699	 0.263793	 0.000000 
Mo183	 0.631941	 0.371118	 0.500000 
Mo184	 0.699983	 0.303076	 0.500000 
S185	 0.685604	 0.356739	 1.000000 
S186	 0.685604	 0.356739	 0.000000 
S187	 0.617563	 0.424780	 1.000000 
S188	 0.617563	 0.424780	 0.000000 
Mo189	 0.588805	 0.532105	 0.500000 
Mo190	 0.656846	 0.464064	 0.500000 
S191	 0.642468	 0.517726	 1.000000 
S192	 0.642468	 0.517726	 0.000000 
S193	 0.574426	 0.585768	 1.000000 
S194	 0.574426	 0.585768	 0.000000 
Mo195	 0.545668	 0.693093	 0.500000 
Mo196	 0.613710	 0.625052	 0.500000 
S197	 0.599331	 0.678714	 1.000000 
S198	 0.599331	 0.678714	 0.000000 
S199	 0.531290	 0.746756	 1.000000 
S200	 0.531290	 0.746756	 0.000000 
Mo201	 0.502532	 0.854081	 0.500000 
Mo202	 0.570573	 0.786039	 0.500000 
S203	 0.556195	 0.839702	 1.000000 
S204	 0.556195	 0.839702	 0.000000 
S205	 0.488153	 0.907743	 1.000000 
S206	 0.488153	 0.907743	 0.000000 
Mo207	 0.718215	 0.049142	 0.500000 
Mo208	 0.527437	 0.947027	 0.500000 
S209	 0.796782	 0.127710	 1.000000 
S210	 0.796782	 0.127710	 0.000000 
Mo211	 0.768024	 0.235035	 0.500000 
Mo212	 0.836066	 0.166994	 0.500000 
S213	 0.821687	 0.220656	 1.000000 
S214	 0.821687	 0.220656	 0.000000 
S215	 0.753645	 0.288697	 1.000000 
S216	 0.753645	 0.288697	 0.000000 
Mo217	 0.724888	 0.396023	 0.500000 
Mo218	 0.792929	 0.327981	 0.500000 
S219	 0.778550	 0.381644	 1.000000 
S220	 0.778550	 0.381644	 0.000000 
S221	 0.710509	 0.449685	 1.000000 
S222	 0.710509	 0.449685	 0.000000 
Mo223	 0.681751	 0.557010	 0.500000 
Mo224	 0.749793	 0.488969	 0.500000 
S225	 0.735414	 0.542631	 1.000000 
S226	 0.735414	 0.542631	 0.000000 
S227	 0.667372	 0.610673	 1.000000 
S228	 0.667372	 0.610673	 0.000000 
Mo229	 0.638615	 0.717998	 0.500000 
Mo230	 0.706656	 0.649956	 0.500000 
S231	 0.692277	 0.703619	 1.000000 
S232	 0.692277	 0.703619	 0.000000 
S233	 0.624236	 0.771660	 1.000000 
S234	 0.624236	 0.771660	 0.000000 
Mo235	 0.595478	 0.878985	 0.500000 
Mo236	 0.663520	 0.810944	 0.500000 
S237	 0.649141	 0.864607	 1.000000 
S238	 0.649141	 0.864607	 0.000000 
S239	 0.581099	 0.932648	 1.000000 
S240	 0.581099	 0.932648	 0.000000 
Mo241	 0.811161	 0.074047	 0.500000 
Mo242	 0.620383	 0.971932	 0.500000 
S243	 0.889728	 0.152615	 1.000000 
S244	 0.889728	 0.152615	 0.000000 
Mo245	 0.860971	 0.259940	 0.500000 
Mo246	 0.929012	 0.191898	 0.500000 
S247	 0.914633	 0.245561	 1.000000 
S248	 0.914633	 0.245561	 0.000000 
S249	 0.846592	 0.313602	 1.000000 
S250	 0.846592	 0.313602	 0.000000 
Mo251	 0.817834	 0.420927	 0.500000 
Mo252	 0.885875	 0.352886	 0.500000 
S253	 0.871497	 0.406549	 1.000000 
S254	 0.871497	 0.406549	 0.000000 
S255	 0.803455	 0.474590	 1.000000 
S256	 0.803455	 0.474590	 0.000000 
Mo257	 0.774697	 0.581915	 0.500000 
Mo258	 0.842739	 0.513874	 0.500000 
S259	 0.828360	 0.567536	 1.000000 
S260	 0.828360	 0.567536	 0.000000 
S261	 0.760319	 0.635578	 1.000000 
S262	 0.760319	 0.635578	 0.000000 
Mo263	 0.731561	 0.742903	 0.500000 
Mo264	 0.799602	 0.674861	 0.500000 
S265	 0.785224	 0.728524	 1.000000 
S266	 0.785224	 0.728524	 0.000000 
S267	 0.717182	 0.796565	 1.000000 
S268	 0.717182	 0.796565	 0.000000 
Mo269	 0.688424	 0.903890	 0.500000 
Mo270	 0.756466	 0.835849	 0.500000 
S271	 0.742087	 0.889512	 1.000000 
S272	 0.742087	 0.889512	 0.000000 
S273	 0.674046	 0.957553	 1.000000 
S274	 0.674046	 0.957553	 0.000000 
Mo275	 0.904107	 0.098952	 0.500000 
Mo276	 0.713329	 0.996837	 0.500000 
S277	 0.982674	 0.177520	 1.000000 
S278	 0.982674	 0.177520	 0.000000 
Mo279	 0.953917	 0.284845	 0.500000 
S280	 0.939538	 0.338507	 1.000000 
S281	 0.939538	 0.338507	 0.000000 
Mo282	 0.910780	 0.445832	 0.500000 
Mo283	 0.978822	 0.377791	 0.500000 
S284	 0.964443	 0.431453	 1.000000 
S285	 0.964443	 0.431453	 0.000000 
S286	 0.896401	 0.499495	 1.000000 
S287	 0.896401	 0.499495	 0.000000 
Mo288	 0.867644	 0.606820	 0.500000 
Mo289	 0.935685	 0.538779	 0.500000 
S290	 0.921306	 0.592441	 1.000000 
S291	 0.921306	 0.592441	 0.000000 
S292	 0.853265	 0.660482	 1.000000 
S293	 0.853265	 0.660482	 0.000000 
Mo294	 0.824507	 0.767808	 0.500000 
Mo295	 0.892549	 0.699766	 0.500000 
S296	 0.878170	 0.753429	 1.000000 
S297	 0.878170	 0.753429	 0.000000 
S298	 0.810128	 0.821470	 1.000000 
S299	 0.810128	 0.821470	 0.000000 
Mo300	 0.781371	 0.928795	 0.500000 
Mo301	 0.849412	 0.860754	 0.500000 
S302	 0.835033	 0.914416	 1.000000 
S303	 0.835033	 0.914416	 0.000000 
S304	 0.766992	 0.982458	 1.000000 
S305	 0.766992	 0.982458	 0.000000 
Mo306	 0.997053	 0.123857	 0.500000 
S307	 0.171063	 0.046322	 1.000000 
S308	 0.171063	 0.046322	 0.000000 
Mo309	 0.142305	 0.153647	 0.500000 
S310	 0.127927	 0.207310	 1.000000 
S311	 0.127927	 0.207310	 0.000000 
S312	 0.989348	 0.524400	 1.000000 
S313	 0.989348	 0.524400	 0.000000 
Mo314	 0.960590	 0.631725	 0.500000 
Mo315	 0.099169	 0.314635	 0.500000 
S316	 0.084790	 0.368297	 1.000000 
S317	 0.084790	 0.368297	 0.000000 
S318	 0.946211	 0.685387	 1.000000 
S319	 0.946211	 0.685387	 0.000000 
Mo320	 0.917454	 0.792712	 0.500000 
Mo321	 0.056032	 0.475622	 0.500000 
S322	 0.041653	 0.529285	 1.000000 
S323	 0.041653	 0.529285	 0.000000 
S324	 0.903075	 0.846375	 1.000000 
S325	 0.903075	 0.846375	 0.000000 
Mo326	 0.874317	 0.953700	 0.500000 
Mo327	 0.012896	 0.636610	 0.500000 
#                 ---end-of-data-block---
