data_Single Layer of MoS2nx 10 ny 6 nz 1
_cell_length_a               32.423991
_cell_length_b               32.423991
_cell_length_c               3.080000
_cell_angle_alpha          90.000000
_cell_angle_beta           90.000000
_cell_angle_gamma          90.000000
_symmetry_cell_setting          Triclinic
_symmetry_space_group_name_H-M 'P 1' 
loop_
_atom_site_label
_atom_site_fract_x
_atom_site_fract_y
_atom_site_fract_z
Mo1	 0.172606	 0.078060	 0.500000 
Mo2	 0.240647	 0.010019	 0.500000 
S3	 0.226268	 0.063681	 1.000000 
S4	 0.226268	 0.063681	 0.000000 
S5	 0.158227	 0.131722	 1.000000 
S6	 0.158227	 0.131722	 0.000000 
Mo7	 0.129469	 0.239048	 0.500000 
Mo8	 0.197511	 0.171006	 0.500000 
S9	 0.183132	 0.224669	 1.000000 
S10	 0.183132	 0.224669	 0.000000 
S11	 0.115090	 0.292710	 1.000000 
S12	 0.115090	 0.292710	 0.000000 
Mo13	 0.086333	 0.400035	 0.500000 
Mo14	 0.154374	 0.331994	 0.500000 
S15	 0.139995	 0.385656	 1.000000 
S16	 0.139995	 0.385656	 0.000000 
S17	 0.071954	 0.453698	 1.000000 
S18	 0.071954	 0.453698	 0.000000 
Mo19	 0.043196	 0.561023	 0.500000 
Mo20	 0.111238	 0.492981	 0.500000 
S21	 0.096859	 0.546644	 1.000000 
S22	 0.096859	 0.546644	 0.000000 
S23	 0.028817	 0.614685	 1.000000 
S24	 0.028817	 0.614685	 0.000000 
Mo25	 0.000060	 0.722010	 0.500000 
Mo26	 0.068101	 0.653969	 0.500000 
S27	 0.053722	 0.707632	 1.000000 
S28	 0.053722	 0.707632	 0.000000 
Mo29	 0.024965	 0.814957	 0.500000 
S30	 0.010586	 0.868619	 1.000000 
S31	 0.010586	 0.868619	 0.000000 
Mo32	 0.265552	 0.102965	 0.500000 
Mo33	 0.333593	 0.034923	 0.500000 
S34	 0.319215	 0.088586	 1.000000 
S35	 0.319215	 0.088586	 0.000000 
S36	 0.251173	 0.156627	 1.000000 
S37	 0.251173	 0.156627	 0.000000 
Mo38	 0.222415	 0.263952	 0.500000 
Mo39	 0.290457	 0.195911	 0.500000 
S40	 0.276078	 0.249574	 1.000000 
S41	 0.276078	 0.249574	 0.000000 
S42	 0.208037	 0.317615	 1.000000 
S43	 0.208037	 0.317615	 0.000000 
Mo44	 0.179279	 0.424940	 0.500000 
Mo45	 0.247320	 0.356899	 0.500000 
S46	 0.232942	 0.410561	 1.000000 
S47	 0.232942	 0.410561	 0.000000 
S48	 0.164900	 0.478603	 1.000000 
S49	 0.164900	 0.478603	 0.000000 
Mo50	 0.136142	 0.585928	 0.500000 
Mo51	 0.204184	 0.517886	 0.500000 
S52	 0.189805	 0.571549	 1.000000 
S53	 0.189805	 0.571549	 0.000000 
S54	 0.121764	 0.639590	 1.000000 
S55	 0.121764	 0.639590	 0.000000 
Mo56	 0.093006	 0.746915	 0.500000 
Mo57	 0.161047	 0.678874	 0.500000 
S58	 0.146669	 0.732536	 1.000000 
S59	 0.146669	 0.732536	 0.000000 
S60	 0.078627	 0.800578	 1.000000 
S61	 0.078627	 0.800578	 0.000000 
Mo62	 0.117911	 0.839862	 0.500000 
S63	 0.103532	 0.893524	 1.000000 
S64	 0.103532	 0.893524	 0.000000 
S65	 0.387256	 0.020545	 1.000000 
S66	 0.387256	 0.020545	 0.000000 
Mo67	 0.358498	 0.127870	 0.500000 
Mo68	 0.426540	 0.059828	 0.500000 
S69	 0.412161	 0.113491	 1.000000 
S70	 0.412161	 0.113491	 0.000000 
S71	 0.344119	 0.181532	 1.000000 
S72	 0.344119	 0.181532	 0.000000 
Mo73	 0.315362	 0.288857	 0.500000 
Mo74	 0.383403	 0.220816	 0.500000 
S75	 0.369024	 0.274478	 1.000000 
S76	 0.369024	 0.274478	 0.000000 
S77	 0.300983	 0.342520	 1.000000 
S78	 0.300983	 0.342520	 0.000000 
Mo79	 0.272225	 0.449845	 0.500000 
Mo80	 0.340267	 0.381804	 0.500000 
S81	 0.325888	 0.435466	 1.000000 
S82	 0.325888	 0.435466	 0.000000 
S83	 0.257846	 0.503507	 1.000000 
S84	 0.257846	 0.503507	 0.000000 
Mo85	 0.229089	 0.610833	 0.500000 
Mo86	 0.297130	 0.542791	 0.500000 
S87	 0.282751	 0.596454	 1.000000 
S88	 0.282751	 0.596454	 0.000000 
S89	 0.214710	 0.664495	 1.000000 
S90	 0.214710	 0.664495	 0.000000 
Mo91	 0.185952	 0.771820	 0.500000 
Mo92	 0.253994	 0.703779	 0.500000 
S93	 0.239615	 0.757441	 1.000000 
S94	 0.239615	 0.757441	 0.000000 
S95	 0.171573	 0.825483	 1.000000 
S96	 0.171573	 0.825483	 0.000000 
Mo97	 0.210857	 0.864766	 0.500000 
S98	 0.196478	 0.918429	 1.000000 
S99	 0.196478	 0.918429	 0.000000 
S100	 0.480202	 0.045449	 1.000000 
S101	 0.480202	 0.045449	 0.000000 
Mo102	 0.451445	 0.152775	 0.500000 
Mo103	 0.519486	 0.084733	 0.500000 
S104	 0.505107	 0.138396	 1.000000 
S105	 0.505107	 0.138396	 0.000000 
S106	 0.437066	 0.206437	 1.000000 
S107	 0.437066	 0.206437	 0.000000 
Mo108	 0.408308	 0.313762	 0.500000 
Mo109	 0.476349	 0.245721	 0.500000 
S110	 0.461971	 0.299383	 1.000000 
S111	 0.461971	 0.299383	 0.000000 
S112	 0.393929	 0.367425	 1.000000 
S113	 0.393929	 0.367425	 0.000000 
Mo114	 0.365171	 0.474750	 0.500000 
Mo115	 0.433213	 0.406708	 0.500000 
S116	 0.418834	 0.460371	 1.000000 
S117	 0.418834	 0.460371	 0.000000 
S118	 0.350793	 0.528412	 1.000000 
S119	 0.350793	 0.528412	 0.000000 
Mo120	 0.322035	 0.635737	 0.500000 
Mo121	 0.390076	 0.567696	 0.500000 
S122	 0.375698	 0.621359	 1.000000 
S123	 0.375698	 0.621359	 0.000000 
S124	 0.307656	 0.689400	 1.000000 
S125	 0.307656	 0.689400	 0.000000 
Mo126	 0.278898	 0.796725	 0.500000 
Mo127	 0.346940	 0.728684	 0.500000 
S128	 0.332561	 0.782346	 1.000000 
S129	 0.332561	 0.782346	 0.000000 
S130	 0.264520	 0.850388	 1.000000 
S131	 0.264520	 0.850388	 0.000000 
Mo132	 0.303803	 0.889671	 0.500000 
S133	 0.289425	 0.943334	 1.000000 
S134	 0.289425	 0.943334	 0.000000 
S135	 0.573148	 0.070354	 1.000000 
S136	 0.573148	 0.070354	 0.000000 
Mo137	 0.544391	 0.177679	 0.500000 
Mo138	 0.612432	 0.109638	 0.500000 
S139	 0.598053	 0.163301	 1.000000 
S140	 0.598053	 0.163301	 0.000000 
S141	 0.530012	 0.231342	 1.000000 
S142	 0.530012	 0.231342	 0.000000 
Mo143	 0.501254	 0.338667	 0.500000 
Mo144	 0.569296	 0.270626	 0.500000 
S145	 0.554917	 0.324288	 1.000000 
S146	 0.554917	 0.324288	 0.000000 
S147	 0.486875	 0.392330	 1.000000 
S148	 0.486875	 0.392330	 0.000000 
Mo149	 0.458118	 0.499655	 0.500000 
Mo150	 0.526159	 0.431613	 0.500000 
S151	 0.511780	 0.485276	 1.000000 
S152	 0.511780	 0.485276	 0.000000 
S153	 0.443739	 0.553317	 1.000000 
S154	 0.443739	 0.553317	 0.000000 
Mo155	 0.414981	 0.660642	 0.500000 
Mo156	 0.483023	 0.592601	 0.500000 
S157	 0.468644	 0.646263	 1.000000 
S158	 0.468644	 0.646263	 0.000000 
S159	 0.400602	 0.714305	 1.000000 
S160	 0.400602	 0.714305	 0.000000 
Mo161	 0.371845	 0.821630	 0.500000 
Mo162	 0.439886	 0.753589	 0.500000 
S163	 0.425507	 0.807251	 1.000000 
S164	 0.425507	 0.807251	 0.000000 
S165	 0.357466	 0.875292	 1.000000 
S166	 0.357466	 0.875292	 0.000000 
Mo167	 0.587527	 0.016692	 0.500000 
Mo168	 0.396750	 0.914576	 0.500000 
S169	 0.382371	 0.968239	 1.000000 
S170	 0.382371	 0.968239	 0.000000 
S171	 0.666095	 0.095259	 1.000000 
S172	 0.666095	 0.095259	 0.000000 
Mo173	 0.637337	 0.202584	 0.500000 
Mo174	 0.705378	 0.134543	 0.500000 
S175	 0.691000	 0.188205	 1.000000 
S176	 0.691000	 0.188205	 0.000000 
S177	 0.622958	 0.256247	 1.000000 
S178	 0.622958	 0.256247	 0.000000 
Mo179	 0.594201	 0.363572	 0.500000 
Mo180	 0.662242	 0.295531	 0.500000 
S181	 0.647863	 0.349193	 1.000000 
S182	 0.647863	 0.349193	 0.000000 
S183	 0.579822	 0.417234	 1.000000 
S184	 0.579822	 0.417234	 0.000000 
Mo185	 0.551064	 0.524560	 0.500000 
Mo186	 0.619105	 0.456518	 0.500000 
S187	 0.604727	 0.510181	 1.000000 
S188	 0.604727	 0.510181	 0.000000 
S189	 0.536685	 0.578222	 1.000000 
S190	 0.536685	 0.578222	 0.000000 
Mo191	 0.507928	 0.685547	 0.500000 
Mo192	 0.575969	 0.617506	 0.500000 
S193	 0.561590	 0.671168	 1.000000 
S194	 0.561590	 0.671168	 0.000000 
S195	 0.493549	 0.739210	 1.000000 
S196	 0.493549	 0.739210	 0.000000 
Mo197	 0.464791	 0.846535	 0.500000 
Mo198	 0.532832	 0.778493	 0.500000 
S199	 0.518454	 0.832156	 1.000000 
S200	 0.518454	 0.832156	 0.000000 
S201	 0.450412	 0.900197	 1.000000 
S202	 0.450412	 0.900197	 0.000000 
Mo203	 0.680474	 0.041597	 0.500000 
Mo204	 0.489696	 0.939481	 0.500000 
S205	 0.475317	 0.993144	 1.000000 
S206	 0.475317	 0.993144	 0.000000 
S207	 0.759041	 0.120164	 1.000000 
S208	 0.759041	 0.120164	 0.000000 
Mo209	 0.730283	 0.227489	 0.500000 
Mo210	 0.798325	 0.159448	 0.500000 
S211	 0.783946	 0.213110	 1.000000 
S212	 0.783946	 0.213110	 0.000000 
S213	 0.715904	 0.281152	 1.000000 
S214	 0.715904	 0.281152	 0.000000 
Mo215	 0.687147	 0.388477	 0.500000 
Mo216	 0.755188	 0.320435	 0.500000 
S217	 0.740809	 0.374098	 1.000000 
S218	 0.740809	 0.374098	 0.000000 
S219	 0.672768	 0.442139	 1.000000 
S220	 0.672768	 0.442139	 0.000000 
Mo221	 0.644010	 0.549464	 0.500000 
Mo222	 0.712052	 0.481423	 0.500000 
S223	 0.697673	 0.535086	 1.000000 
S224	 0.697673	 0.535086	 0.000000 
S225	 0.629631	 0.603127	 1.000000 
S226	 0.629631	 0.603127	 0.000000 
Mo227	 0.600874	 0.710452	 0.500000 
Mo228	 0.668915	 0.642411	 0.500000 
S229	 0.654536	 0.696073	 1.000000 
S230	 0.654536	 0.696073	 0.000000 
S231	 0.586495	 0.764115	 1.000000 
S232	 0.586495	 0.764115	 0.000000 
Mo233	 0.557737	 0.871440	 0.500000 
Mo234	 0.625779	 0.803398	 0.500000 
S235	 0.611400	 0.857061	 1.000000 
S236	 0.611400	 0.857061	 0.000000 
S237	 0.543358	 0.925102	 1.000000 
S238	 0.543358	 0.925102	 0.000000 
Mo239	 0.773420	 0.066502	 0.500000 
Mo240	 0.582642	 0.964386	 0.500000 
S241	 0.851987	 0.145069	 1.000000 
S242	 0.851987	 0.145069	 0.000000 
Mo243	 0.823230	 0.252394	 0.500000 
Mo244	 0.891271	 0.184353	 0.500000 
S245	 0.876892	 0.238015	 1.000000 
S246	 0.876892	 0.238015	 0.000000 
S247	 0.808851	 0.306057	 1.000000 
S248	 0.808851	 0.306057	 0.000000 
Mo249	 0.780093	 0.413382	 0.500000 
Mo250	 0.848134	 0.345340	 0.500000 
S251	 0.833756	 0.399003	 1.000000 
S252	 0.833756	 0.399003	 0.000000 
S253	 0.765714	 0.467044	 1.000000 
S254	 0.765714	 0.467044	 0.000000 
Mo255	 0.736957	 0.574369	 0.500000 
Mo256	 0.804998	 0.506328	 0.500000 
S257	 0.790619	 0.559990	 1.000000 
S258	 0.790619	 0.559990	 0.000000 
S259	 0.722578	 0.628032	 1.000000 
S260	 0.722578	 0.628032	 0.000000 
Mo261	 0.693820	 0.735357	 0.500000 
Mo262	 0.761861	 0.667316	 0.500000 
S263	 0.747483	 0.720978	 1.000000 
S264	 0.747483	 0.720978	 0.000000 
S265	 0.679441	 0.789019	 1.000000 
S266	 0.679441	 0.789019	 0.000000 
Mo267	 0.650684	 0.896345	 0.500000 
Mo268	 0.718725	 0.828303	 0.500000 
S269	 0.704346	 0.881966	 1.000000 
S270	 0.704346	 0.881966	 0.000000 
S271	 0.636305	 0.950007	 1.000000 
S272	 0.636305	 0.950007	 0.000000 
Mo273	 0.866366	 0.091406	 0.500000 
Mo274	 0.675588	 0.989291	 0.500000 
S275	 0.944933	 0.169974	 1.000000 
S276	 0.944933	 0.169974	 0.000000 
Mo277	 0.916176	 0.277299	 0.500000 
Mo278	 0.984217	 0.209258	 0.500000 
S279	 0.969838	 0.262920	 1.000000 
S280	 0.969838	 0.262920	 0.000000 
S281	 0.901797	 0.330961	 1.000000 
S282	 0.901797	 0.330961	 0.000000 
Mo283	 0.873039	 0.438287	 0.500000 
Mo284	 0.941081	 0.370245	 0.500000 
S285	 0.926702	 0.423908	 1.000000 
S286	 0.926702	 0.423908	 0.000000 
S287	 0.858660	 0.491949	 1.000000 
S288	 0.858660	 0.491949	 0.000000 
Mo289	 0.829903	 0.599274	 0.500000 
Mo290	 0.897944	 0.531233	 0.500000 
S291	 0.883565	 0.584895	 1.000000 
S292	 0.883565	 0.584895	 0.000000 
S293	 0.815524	 0.652937	 1.000000 
S294	 0.815524	 0.652937	 0.000000 
Mo295	 0.786766	 0.760262	 0.500000 
Mo296	 0.854808	 0.692220	 0.500000 
S297	 0.840429	 0.745883	 1.000000 
S298	 0.840429	 0.745883	 0.000000 
S299	 0.772387	 0.813924	 1.000000 
S300	 0.772387	 0.813924	 0.000000 
Mo301	 0.743630	 0.921249	 0.500000 
Mo302	 0.811671	 0.853208	 0.500000 
S303	 0.797292	 0.906871	 1.000000 
S304	 0.797292	 0.906871	 0.000000 
S305	 0.729251	 0.974912	 1.000000 
S306	 0.729251	 0.974912	 0.000000 
Mo307	 0.959312	 0.116311	 0.500000 
S308	 0.133322	 0.038776	 1.000000 
S309	 0.133322	 0.038776	 0.000000 
S310	 0.994743	 0.355866	 1.000000 
S311	 0.994743	 0.355866	 0.000000 
Mo312	 0.965986	 0.463191	 0.500000 
Mo313	 0.104564	 0.146101	 0.500000 
S314	 0.090186	 0.199764	 1.000000 
S315	 0.090186	 0.199764	 0.000000 
S316	 0.951607	 0.516854	 1.000000 
S317	 0.951607	 0.516854	 0.000000 
Mo318	 0.922849	 0.624179	 0.500000 
Mo319	 0.061428	 0.307089	 0.500000 
S320	 0.047049	 0.360751	 1.000000 
S321	 0.047049	 0.360751	 0.000000 
S322	 0.908470	 0.677842	 1.000000 
S323	 0.908470	 0.677842	 0.000000 
Mo324	 0.879713	 0.785167	 0.500000 
Mo325	 0.018291	 0.468077	 0.500000 
S326	 0.003913	 0.521739	 1.000000 
S327	 0.003913	 0.521739	 0.000000 
S328	 0.865334	 0.838829	 1.000000 
S329	 0.865334	 0.838829	 0.000000 
Mo330	 0.836576	 0.946154	 0.500000 
S331	 0.822197	 0.999817	 1.000000 
S332	 0.822197	 0.999817	 0.000000 
#                 ---end-of-data-block---
