data_Single Layer of MoS2nx 10 ny 6 nz 1
_cell_length_a               32.423991
_cell_length_b               32.423991
_cell_length_c               3.080000
_cell_angle_alpha          90.000000
_cell_angle_beta           90.000000
_cell_angle_gamma          90.000000
_symmetry_cell_setting          Triclinic
_symmetry_space_group_name_H-M 'P 1' 
loop_
_atom_site_label
_atom_site_fract_x
_atom_site_fract_y
_atom_site_fract_z
Mo1	 0.187682	 0.023966	 0.500000 
S2	 0.241344	 0.009587	 1.000000 
S3	 0.241344	 0.009587	 0.000000 
S4	 0.173303	 0.077628	 1.000000 
S5	 0.173303	 0.077628	 0.000000 
Mo6	 0.144545	 0.184953	 0.500000 
Mo7	 0.212587	 0.116912	 0.500000 
S8	 0.198208	 0.170574	 1.000000 
S9	 0.198208	 0.170574	 0.000000 
S10	 0.130166	 0.238616	 1.000000 
S11	 0.130166	 0.238616	 0.000000 
Mo12	 0.101409	 0.345941	 0.500000 
Mo13	 0.169450	 0.277899	 0.500000 
S14	 0.155071	 0.331562	 1.000000 
S15	 0.155071	 0.331562	 0.000000 
S16	 0.087030	 0.399603	 1.000000 
S17	 0.087030	 0.399603	 0.000000 
Mo18	 0.058272	 0.506929	 0.500000 
Mo19	 0.126314	 0.438887	 0.500000 
S20	 0.111935	 0.492550	 1.000000 
S21	 0.111935	 0.492550	 0.000000 
S22	 0.043893	 0.560591	 1.000000 
S23	 0.043893	 0.560591	 0.000000 
Mo24	 0.015136	 0.667916	 0.500000 
Mo25	 0.083177	 0.599875	 0.500000 
S26	 0.068798	 0.653537	 1.000000 
S27	 0.068798	 0.653537	 0.000000 
S28	 0.000757	 0.721579	 1.000000 
S29	 0.000757	 0.721579	 0.000000 
Mo30	 0.040041	 0.760862	 0.500000 
S31	 0.025662	 0.814525	 1.000000 
S32	 0.025662	 0.814525	 0.000000 
Mo33	 0.280628	 0.048870	 0.500000 
S34	 0.334291	 0.034492	 1.000000 
S35	 0.334291	 0.034492	 0.000000 
S36	 0.266249	 0.102533	 1.000000 
S37	 0.266249	 0.102533	 0.000000 
Mo38	 0.237492	 0.209858	 0.500000 
Mo39	 0.305533	 0.141817	 0.500000 
S40	 0.291154	 0.195479	 1.000000 
S41	 0.291154	 0.195479	 0.000000 
S42	 0.223113	 0.263521	 1.000000 
S43	 0.223113	 0.263521	 0.000000 
Mo44	 0.194355	 0.370846	 0.500000 
Mo45	 0.262396	 0.302804	 0.500000 
S46	 0.248018	 0.356467	 1.000000 
S47	 0.248018	 0.356467	 0.000000 
S48	 0.179976	 0.424508	 1.000000 
S49	 0.179976	 0.424508	 0.000000 
Mo50	 0.151219	 0.531833	 0.500000 
Mo51	 0.219260	 0.463792	 0.500000 
S52	 0.204881	 0.517455	 1.000000 
S53	 0.204881	 0.517455	 0.000000 
S54	 0.136840	 0.585496	 1.000000 
S55	 0.136840	 0.585496	 0.000000 
Mo56	 0.108082	 0.692821	 0.500000 
Mo57	 0.176123	 0.624780	 0.500000 
S58	 0.161745	 0.678442	 1.000000 
S59	 0.161745	 0.678442	 0.000000 
S60	 0.093703	 0.746484	 1.000000 
S61	 0.093703	 0.746484	 0.000000 
Mo62	 0.064946	 0.853809	 0.500000 
Mo63	 0.132987	 0.785767	 0.500000 
S64	 0.118608	 0.839430	 1.000000 
S65	 0.118608	 0.839430	 0.000000 
Mo66	 0.373574	 0.073775	 0.500000 
Mo67	 0.441616	 0.005734	 0.500000 
S68	 0.427237	 0.059397	 1.000000 
S69	 0.427237	 0.059397	 0.000000 
S70	 0.359195	 0.127438	 1.000000 
S71	 0.359195	 0.127438	 0.000000 
Mo72	 0.330438	 0.234763	 0.500000 
Mo73	 0.398479	 0.166722	 0.500000 
S74	 0.384100	 0.220384	 1.000000 
S75	 0.384100	 0.220384	 0.000000 
S76	 0.316059	 0.288426	 1.000000 
S77	 0.316059	 0.288426	 0.000000 
Mo78	 0.287301	 0.395751	 0.500000 
Mo79	 0.355343	 0.327709	 0.500000 
S80	 0.340964	 0.381372	 1.000000 
S81	 0.340964	 0.381372	 0.000000 
S82	 0.272922	 0.449413	 1.000000 
S83	 0.272922	 0.449413	 0.000000 
Mo84	 0.244165	 0.556738	 0.500000 
Mo85	 0.312206	 0.488697	 0.500000 
S86	 0.297827	 0.542359	 1.000000 
S87	 0.297827	 0.542359	 0.000000 
S88	 0.229786	 0.610401	 1.000000 
S89	 0.229786	 0.610401	 0.000000 
Mo90	 0.201028	 0.717726	 0.500000 
Mo91	 0.269070	 0.649685	 0.500000 
S92	 0.254691	 0.703347	 1.000000 
S93	 0.254691	 0.703347	 0.000000 
S94	 0.186649	 0.771388	 1.000000 
S95	 0.186649	 0.771388	 0.000000 
Mo96	 0.157892	 0.878714	 0.500000 
Mo97	 0.225933	 0.810672	 0.500000 
S98	 0.211554	 0.864335	 1.000000 
S99	 0.211554	 0.864335	 0.000000 
Mo100	 0.466521	 0.098680	 0.500000 
Mo101	 0.534562	 0.030639	 0.500000 
S102	 0.520183	 0.084301	 1.000000 
S103	 0.520183	 0.084301	 0.000000 
S104	 0.452142	 0.152343	 1.000000 
S105	 0.452142	 0.152343	 0.000000 
Mo106	 0.423384	 0.259668	 0.500000 
Mo107	 0.491425	 0.191626	 0.500000 
S108	 0.477047	 0.245289	 1.000000 
S109	 0.477047	 0.245289	 0.000000 
S110	 0.409005	 0.313330	 1.000000 
S111	 0.409005	 0.313330	 0.000000 
Mo112	 0.380248	 0.420656	 0.500000 
Mo113	 0.448289	 0.352614	 0.500000 
S114	 0.433910	 0.406277	 1.000000 
S115	 0.433910	 0.406277	 0.000000 
S116	 0.365869	 0.474318	 1.000000 
S117	 0.365869	 0.474318	 0.000000 
Mo118	 0.337111	 0.581643	 0.500000 
Mo119	 0.405152	 0.513602	 0.500000 
S120	 0.390774	 0.567264	 1.000000 
S121	 0.390774	 0.567264	 0.000000 
S122	 0.322732	 0.635306	 1.000000 
S123	 0.322732	 0.635306	 0.000000 
Mo124	 0.293975	 0.742631	 0.500000 
Mo125	 0.362016	 0.674589	 0.500000 
S126	 0.347637	 0.728252	 1.000000 
S127	 0.347637	 0.728252	 0.000000 
S128	 0.279596	 0.796293	 1.000000 
S129	 0.279596	 0.796293	 0.000000 
Mo130	 0.250838	 0.903618	 0.500000 
Mo131	 0.318879	 0.835577	 0.500000 
S132	 0.304501	 0.889240	 1.000000 
S133	 0.304501	 0.889240	 0.000000 
S134	 0.588225	 0.016260	 1.000000 
S135	 0.588225	 0.016260	 0.000000 
Mo136	 0.559467	 0.123585	 0.500000 
Mo137	 0.627508	 0.055544	 0.500000 
S138	 0.613129	 0.109206	 1.000000 
S139	 0.613129	 0.109206	 0.000000 
S140	 0.545088	 0.177248	 1.000000 
S141	 0.545088	 0.177248	 0.000000 
Mo142	 0.516330	 0.284573	 0.500000 
Mo143	 0.584372	 0.216531	 0.500000 
S144	 0.569993	 0.270194	 1.000000 
S145	 0.569993	 0.270194	 0.000000 
S146	 0.501952	 0.338235	 1.000000 
S147	 0.501952	 0.338235	 0.000000 
Mo148	 0.473194	 0.445560	 0.500000 
Mo149	 0.541235	 0.377519	 0.500000 
S150	 0.526856	 0.431182	 1.000000 
S151	 0.526856	 0.431182	 0.000000 
S152	 0.458815	 0.499223	 1.000000 
S153	 0.458815	 0.499223	 0.000000 
Mo154	 0.430057	 0.606548	 0.500000 
Mo155	 0.498099	 0.538507	 0.500000 
S156	 0.483720	 0.592169	 1.000000 
S157	 0.483720	 0.592169	 0.000000 
S158	 0.415678	 0.660211	 1.000000 
S159	 0.415678	 0.660211	 0.000000 
Mo160	 0.386921	 0.767536	 0.500000 
Mo161	 0.454962	 0.699494	 0.500000 
S162	 0.440583	 0.753157	 1.000000 
S163	 0.440583	 0.753157	 0.000000 
S164	 0.372542	 0.821198	 1.000000 
S165	 0.372542	 0.821198	 0.000000 
Mo166	 0.343784	 0.928523	 0.500000 
Mo167	 0.411826	 0.860482	 0.500000 
S168	 0.397447	 0.914144	 1.000000 
S169	 0.397447	 0.914144	 0.000000 
S170	 0.681171	 0.041165	 1.000000 
S171	 0.681171	 0.041165	 0.000000 
Mo172	 0.652413	 0.148490	 0.500000 
Mo173	 0.720454	 0.080449	 0.500000 
S174	 0.706076	 0.134111	 1.000000 
S175	 0.706076	 0.134111	 0.000000 
S176	 0.638034	 0.202153	 1.000000 
S177	 0.638034	 0.202153	 0.000000 
Mo178	 0.609277	 0.309478	 0.500000 
Mo179	 0.677318	 0.241436	 0.500000 
S180	 0.662939	 0.295099	 1.000000 
S181	 0.662939	 0.295099	 0.000000 
S182	 0.594898	 0.363140	 1.000000 
S183	 0.594898	 0.363140	 0.000000 
Mo184	 0.566140	 0.470465	 0.500000 
Mo185	 0.634181	 0.402424	 0.500000 
S186	 0.619803	 0.456086	 1.000000 
S187	 0.619803	 0.456086	 0.000000 
S188	 0.551761	 0.524128	 1.000000 
S189	 0.551761	 0.524128	 0.000000 
Mo190	 0.523004	 0.631453	 0.500000 
Mo191	 0.591045	 0.563412	 0.500000 
S192	 0.576666	 0.617074	 1.000000 
S193	 0.576666	 0.617074	 0.000000 
S194	 0.508625	 0.685115	 1.000000 
S195	 0.508625	 0.685115	 0.000000 
Mo196	 0.479867	 0.792441	 0.500000 
Mo197	 0.547908	 0.724399	 0.500000 
S198	 0.533530	 0.778062	 1.000000 
S199	 0.533530	 0.778062	 0.000000 
S200	 0.465488	 0.846103	 1.000000 
S201	 0.465488	 0.846103	 0.000000 
Mo202	 0.436731	 0.953428	 0.500000 
Mo203	 0.504772	 0.885387	 0.500000 
S204	 0.490393	 0.939049	 1.000000 
S205	 0.490393	 0.939049	 0.000000 
S206	 0.774117	 0.066070	 1.000000 
S207	 0.774117	 0.066070	 0.000000 
Mo208	 0.745359	 0.173395	 0.500000 
Mo209	 0.813401	 0.105353	 0.500000 
S210	 0.799022	 0.159016	 1.000000 
S211	 0.799022	 0.159016	 0.000000 
S212	 0.730981	 0.227057	 1.000000 
S213	 0.730981	 0.227057	 0.000000 
Mo214	 0.702223	 0.334382	 0.500000 
Mo215	 0.770264	 0.266341	 0.500000 
S216	 0.755885	 0.320004	 1.000000 
S217	 0.755885	 0.320004	 0.000000 
S218	 0.687844	 0.388045	 1.000000 
S219	 0.687844	 0.388045	 0.000000 
Mo220	 0.659086	 0.495370	 0.500000 
Mo221	 0.727128	 0.427329	 0.500000 
S222	 0.712749	 0.480991	 1.000000 
S223	 0.712749	 0.480991	 0.000000 
S224	 0.644708	 0.549033	 1.000000 
S225	 0.644708	 0.549033	 0.000000 
Mo226	 0.615950	 0.656358	 0.500000 
Mo227	 0.683991	 0.588316	 0.500000 
S228	 0.669612	 0.641979	 1.000000 
S229	 0.669612	 0.641979	 0.000000 
S230	 0.601571	 0.710020	 1.000000 
S231	 0.601571	 0.710020	 0.000000 
Mo232	 0.572813	 0.817345	 0.500000 
Mo233	 0.640855	 0.749304	 0.500000 
S234	 0.626476	 0.802967	 1.000000 
S235	 0.626476	 0.802967	 0.000000 
S236	 0.558434	 0.871008	 1.000000 
S237	 0.558434	 0.871008	 0.000000 
Mo238	 0.529677	 0.978333	 0.500000 
Mo239	 0.597718	 0.910292	 0.500000 
S240	 0.583339	 0.963954	 1.000000 
S241	 0.583339	 0.963954	 0.000000 
S242	 0.867063	 0.090975	 1.000000 
S243	 0.867063	 0.090975	 0.000000 
Mo244	 0.838306	 0.198300	 0.500000 
Mo245	 0.906347	 0.130258	 0.500000 
S246	 0.891968	 0.183921	 1.000000 
S247	 0.891968	 0.183921	 0.000000 
S248	 0.823927	 0.251962	 1.000000 
S249	 0.823927	 0.251962	 0.000000 
Mo250	 0.795169	 0.359287	 0.500000 
Mo251	 0.863210	 0.291246	 0.500000 
S252	 0.848832	 0.344909	 1.000000 
S253	 0.848832	 0.344909	 0.000000 
S254	 0.780790	 0.412950	 1.000000 
S255	 0.780790	 0.412950	 0.000000 
Mo256	 0.752033	 0.520275	 0.500000 
Mo257	 0.820074	 0.452234	 0.500000 
S258	 0.805695	 0.505896	 1.000000 
S259	 0.805695	 0.505896	 0.000000 
S260	 0.737654	 0.573938	 1.000000 
S261	 0.737654	 0.573938	 0.000000 
Mo262	 0.708896	 0.681263	 0.500000 
Mo263	 0.776937	 0.613221	 0.500000 
S264	 0.762559	 0.666884	 1.000000 
S265	 0.762559	 0.666884	 0.000000 
S266	 0.694517	 0.734925	 1.000000 
S267	 0.694517	 0.734925	 0.000000 
Mo268	 0.665760	 0.842250	 0.500000 
Mo269	 0.733801	 0.774209	 0.500000 
S270	 0.719422	 0.827871	 1.000000 
S271	 0.719422	 0.827871	 0.000000 
S272	 0.651381	 0.895913	 1.000000 
S273	 0.651381	 0.895913	 0.000000 
Mo274	 0.690664	 0.935197	 0.500000 
S275	 0.676286	 0.988859	 1.000000 
S276	 0.676286	 0.988859	 0.000000 
S277	 0.960010	 0.115880	 1.000000 
S278	 0.960010	 0.115880	 0.000000 
Mo279	 0.931252	 0.223205	 0.500000 
Mo280	 0.999293	 0.155163	 0.500000 
S281	 0.984914	 0.208826	 1.000000 
S282	 0.984914	 0.208826	 0.000000 
S283	 0.916873	 0.276867	 1.000000 
S284	 0.916873	 0.276867	 0.000000 
Mo285	 0.888115	 0.384192	 0.500000 
Mo286	 0.956157	 0.316151	 0.500000 
S287	 0.941778	 0.369813	 1.000000 
S288	 0.941778	 0.369813	 0.000000 
S289	 0.873737	 0.437855	 1.000000 
S290	 0.873737	 0.437855	 0.000000 
Mo291	 0.844979	 0.545180	 0.500000 
Mo292	 0.913020	 0.477138	 0.500000 
S293	 0.898641	 0.530801	 1.000000 
S294	 0.898641	 0.530801	 0.000000 
S295	 0.830600	 0.598842	 1.000000 
S296	 0.830600	 0.598842	 0.000000 
Mo297	 0.801842	 0.706168	 0.500000 
Mo298	 0.869884	 0.638126	 0.500000 
S299	 0.855505	 0.691789	 1.000000 
S300	 0.855505	 0.691789	 0.000000 
S301	 0.787464	 0.759830	 1.000000 
S302	 0.787464	 0.759830	 0.000000 
Mo303	 0.758706	 0.867155	 0.500000 
Mo304	 0.826747	 0.799114	 0.500000 
S305	 0.812368	 0.852776	 1.000000 
S306	 0.812368	 0.852776	 0.000000 
S307	 0.744327	 0.920818	 1.000000 
S308	 0.744327	 0.920818	 0.000000 
Mo309	 0.783611	 0.960101	 0.500000 
Mo310	 0.981062	 0.409097	 0.500000 
Mo311	 0.119640	 0.092007	 0.500000 
S312	 0.105262	 0.145670	 1.000000 
S313	 0.105262	 0.145670	 0.000000 
S314	 0.966683	 0.462760	 1.000000 
S315	 0.966683	 0.462760	 0.000000 
Mo316	 0.937925	 0.570085	 0.500000 
Mo317	 0.076504	 0.252995	 0.500000 
S318	 0.062125	 0.306657	 1.000000 
S319	 0.062125	 0.306657	 0.000000 
S320	 0.923546	 0.623747	 1.000000 
S321	 0.923546	 0.623747	 0.000000 
Mo322	 0.894789	 0.731072	 0.500000 
Mo323	 0.033367	 0.413982	 0.500000 
S324	 0.018989	 0.467645	 1.000000 
S325	 0.018989	 0.467645	 0.000000 
S326	 0.880410	 0.784735	 1.000000 
S327	 0.880410	 0.784735	 0.000000 
Mo328	 0.851652	 0.892060	 0.500000 
S329	 0.837273	 0.945723	 1.000000 
S330	 0.837273	 0.945723	 0.000000 
#                 ---end-of-data-block---
