data_Single Layer of MoS2nx 10 ny 6 nz 1
_cell_length_a               32.423991
_cell_length_b               32.423991
_cell_length_c               3.080000
_cell_angle_alpha          90.000000
_cell_angle_beta           90.000000
_cell_angle_gamma          90.000000
_symmetry_cell_setting          Triclinic
_symmetry_space_group_name_H-M 'P 1' 
loop_
_atom_site_label
_atom_site_fract_x
_atom_site_fract_y
_atom_site_fract_z
Mo1	 0.304748	 0.005884	 0.500000 
S2	 0.360304	 0.005884	 1.000000 
S3	 0.360304	 0.005884	 0.000000 
S4	 0.276971	 0.053996	 1.000000 
S5	 0.276971	 0.053996	 0.000000 
Mo6	 0.221415	 0.150221	 0.500000 
Mo7	 0.304748	 0.102109	 0.500000 
S8	 0.276971	 0.150221	 1.000000 
S9	 0.276971	 0.150221	 0.000000 
S10	 0.193637	 0.198334	 1.000000 
S11	 0.193637	 0.198334	 0.000000 
Mo12	 0.138082	 0.294559	 0.500000 
Mo13	 0.221415	 0.246446	 0.500000 
S14	 0.193637	 0.294559	 1.000000 
S15	 0.193637	 0.294559	 0.000000 
S16	 0.110304	 0.342672	 1.000000 
S17	 0.110304	 0.342672	 0.000000 
Mo18	 0.054748	 0.438897	 0.500000 
Mo19	 0.138082	 0.390784	 0.500000 
S20	 0.110304	 0.438897	 1.000000 
S21	 0.110304	 0.438897	 0.000000 
S22	 0.026971	 0.487009	 1.000000 
S23	 0.026971	 0.487009	 0.000000 
Mo24	 0.054748	 0.535122	 0.500000 
S25	 0.026971	 0.583234	 1.000000 
S26	 0.026971	 0.583234	 0.000000 
Mo27	 0.388082	 0.053996	 0.500000 
Mo28	 0.471415	 0.005884	 0.500000 
S29	 0.443637	 0.053996	 1.000000 
S30	 0.443637	 0.053996	 0.000000 
S31	 0.360304	 0.102109	 1.000000 
S32	 0.360304	 0.102109	 0.000000 
Mo33	 0.304748	 0.198334	 0.500000 
Mo34	 0.388082	 0.150221	 0.500000 
S35	 0.360304	 0.198334	 1.000000 
S36	 0.360304	 0.198334	 0.000000 
S37	 0.276971	 0.246446	 1.000000 
S38	 0.276971	 0.246446	 0.000000 
Mo39	 0.221415	 0.342672	 0.500000 
Mo40	 0.304748	 0.294559	 0.500000 
S41	 0.276971	 0.342672	 1.000000 
S42	 0.276971	 0.342672	 0.000000 
S43	 0.193637	 0.390784	 1.000000 
S44	 0.193637	 0.390784	 0.000000 
Mo45	 0.138082	 0.487009	 0.500000 
Mo46	 0.221415	 0.438897	 0.500000 
S47	 0.193637	 0.487009	 1.000000 
S48	 0.193637	 0.487009	 0.000000 
S49	 0.110304	 0.535122	 1.000000 
S50	 0.110304	 0.535122	 0.000000 
Mo51	 0.054748	 0.631347	 0.500000 
Mo52	 0.138082	 0.583234	 0.500000 
S53	 0.110304	 0.631347	 1.000000 
S54	 0.110304	 0.631347	 0.000000 
S55	 0.026971	 0.679459	 1.000000 
S56	 0.026971	 0.679459	 0.000000 
Mo57	 0.054748	 0.727572	 0.500000 
S58	 0.026971	 0.775684	 1.000000 
S59	 0.026971	 0.775684	 0.000000 
S60	 0.526971	 0.005884	 1.000000 
S61	 0.526971	 0.005884	 0.000000 
Mo62	 0.471415	 0.102109	 0.500000 
Mo63	 0.554748	 0.053996	 0.500000 
S64	 0.526971	 0.102109	 1.000000 
S65	 0.526971	 0.102109	 0.000000 
S66	 0.443637	 0.150221	 1.000000 
S67	 0.443637	 0.150221	 0.000000 
Mo68	 0.388082	 0.246446	 0.500000 
Mo69	 0.471415	 0.198334	 0.500000 
S70	 0.443637	 0.246446	 1.000000 
S71	 0.443637	 0.246446	 0.000000 
S72	 0.360304	 0.294559	 1.000000 
S73	 0.360304	 0.294559	 0.000000 
Mo74	 0.304748	 0.390784	 0.500000 
Mo75	 0.388082	 0.342672	 0.500000 
S76	 0.360304	 0.390784	 1.000000 
S77	 0.360304	 0.390784	 0.000000 
S78	 0.276971	 0.438897	 1.000000 
S79	 0.276971	 0.438897	 0.000000 
Mo80	 0.221415	 0.535122	 0.500000 
Mo81	 0.304748	 0.487009	 0.500000 
S82	 0.276971	 0.535122	 1.000000 
S83	 0.276971	 0.535122	 0.000000 
S84	 0.193637	 0.583234	 1.000000 
S85	 0.193637	 0.583234	 0.000000 
Mo86	 0.138082	 0.679459	 0.500000 
Mo87	 0.221415	 0.631347	 0.500000 
S88	 0.193637	 0.679459	 1.000000 
S89	 0.193637	 0.679459	 0.000000 
S90	 0.110304	 0.727572	 1.000000 
S91	 0.110304	 0.727572	 0.000000 
Mo92	 0.138082	 0.775684	 0.500000 
S93	 0.110304	 0.823797	 1.000000 
S94	 0.110304	 0.823797	 0.000000 
S95	 0.610304	 0.053996	 1.000000 
S96	 0.610304	 0.053996	 0.000000 
Mo97	 0.554748	 0.150221	 0.500000 
Mo98	 0.638082	 0.102109	 0.500000 
S99	 0.610304	 0.150221	 1.000000 
S100	 0.610304	 0.150221	 0.000000 
S101	 0.526971	 0.198334	 1.000000 
S102	 0.526971	 0.198334	 0.000000 
Mo103	 0.471415	 0.294559	 0.500000 
Mo104	 0.554748	 0.246446	 0.500000 
S105	 0.526971	 0.294559	 1.000000 
S106	 0.526971	 0.294559	 0.000000 
S107	 0.443637	 0.342672	 1.000000 
S108	 0.443637	 0.342672	 0.000000 
Mo109	 0.388082	 0.438897	 0.500000 
Mo110	 0.471415	 0.390784	 0.500000 
S111	 0.443637	 0.438897	 1.000000 
S112	 0.443637	 0.438897	 0.000000 
S113	 0.360304	 0.487009	 1.000000 
S114	 0.360304	 0.487009	 0.000000 
Mo115	 0.304748	 0.583234	 0.500000 
Mo116	 0.388082	 0.535122	 0.500000 
S117	 0.360304	 0.583234	 1.000000 
S118	 0.360304	 0.583234	 0.000000 
S119	 0.276971	 0.631347	 1.000000 
S120	 0.276971	 0.631347	 0.000000 
Mo121	 0.221415	 0.727572	 0.500000 
Mo122	 0.304748	 0.679459	 0.500000 
S123	 0.276971	 0.727572	 1.000000 
S124	 0.276971	 0.727572	 0.000000 
S125	 0.193637	 0.775684	 1.000000 
S126	 0.193637	 0.775684	 0.000000 
Mo127	 0.638082	 0.005884	 0.500000 
Mo128	 0.221415	 0.823797	 0.500000 
S129	 0.193637	 0.871909	 1.000000 
S130	 0.193637	 0.871909	 0.000000 
S131	 0.693637	 0.102109	 1.000000 
S132	 0.693637	 0.102109	 0.000000 
Mo133	 0.638082	 0.198334	 0.500000 
Mo134	 0.721415	 0.150221	 0.500000 
S135	 0.693637	 0.198334	 1.000000 
S136	 0.693637	 0.198334	 0.000000 
S137	 0.610304	 0.246446	 1.000000 
S138	 0.610304	 0.246446	 0.000000 
Mo139	 0.554748	 0.342672	 0.500000 
Mo140	 0.638082	 0.294559	 0.500000 
S141	 0.610304	 0.342672	 1.000000 
S142	 0.610304	 0.342672	 0.000000 
S143	 0.526971	 0.390784	 1.000000 
S144	 0.526971	 0.390784	 0.000000 
Mo145	 0.471415	 0.487009	 0.500000 
Mo146	 0.554748	 0.438897	 0.500000 
S147	 0.526971	 0.487009	 1.000000 
S148	 0.526971	 0.487009	 0.000000 
S149	 0.443637	 0.535122	 1.000000 
S150	 0.443637	 0.535122	 0.000000 
Mo151	 0.388082	 0.631347	 0.500000 
Mo152	 0.471415	 0.583234	 0.500000 
S153	 0.443637	 0.631347	 1.000000 
S154	 0.443637	 0.631347	 0.000000 
S155	 0.360304	 0.679459	 1.000000 
S156	 0.360304	 0.679459	 0.000000 
Mo157	 0.304748	 0.775684	 0.500000 
Mo158	 0.388082	 0.727572	 0.500000 
S159	 0.360304	 0.775684	 1.000000 
S160	 0.360304	 0.775684	 0.000000 
S161	 0.276971	 0.823797	 1.000000 
S162	 0.276971	 0.823797	 0.000000 
Mo163	 0.721415	 0.053996	 0.500000 
Mo164	 0.304748	 0.871909	 0.500000 
S165	 0.276971	 0.920022	 1.000000 
S166	 0.276971	 0.920022	 0.000000 
S167	 0.776971	 0.150221	 1.000000 
S168	 0.776971	 0.150221	 0.000000 
Mo169	 0.721415	 0.246446	 0.500000 
Mo170	 0.804748	 0.198334	 0.500000 
S171	 0.776971	 0.246446	 1.000000 
S172	 0.776971	 0.246446	 0.000000 
S173	 0.693637	 0.294559	 1.000000 
S174	 0.693637	 0.294559	 0.000000 
Mo175	 0.638082	 0.390784	 0.500000 
Mo176	 0.721415	 0.342672	 0.500000 
S177	 0.693637	 0.390784	 1.000000 
S178	 0.693637	 0.390784	 0.000000 
S179	 0.610304	 0.438897	 1.000000 
S180	 0.610304	 0.438897	 0.000000 
Mo181	 0.554748	 0.535122	 0.500000 
Mo182	 0.638082	 0.487009	 0.500000 
S183	 0.610304	 0.535122	 1.000000 
S184	 0.610304	 0.535122	 0.000000 
S185	 0.526971	 0.583234	 1.000000 
S186	 0.526971	 0.583234	 0.000000 
Mo187	 0.471415	 0.679459	 0.500000 
Mo188	 0.554748	 0.631347	 0.500000 
S189	 0.526971	 0.679459	 1.000000 
S190	 0.526971	 0.679459	 0.000000 
S191	 0.443637	 0.727572	 1.000000 
S192	 0.443637	 0.727572	 0.000000 
Mo193	 0.388082	 0.823797	 0.500000 
Mo194	 0.471415	 0.775684	 0.500000 
S195	 0.443637	 0.823797	 1.000000 
S196	 0.443637	 0.823797	 0.000000 
S197	 0.360304	 0.871909	 1.000000 
S198	 0.360304	 0.871909	 0.000000 
Mo199	 0.804748	 0.102109	 0.500000 
Mo200	 0.388082	 0.920022	 0.500000 
S201	 0.360304	 0.968134	 1.000000 
S202	 0.360304	 0.968134	 0.000000 
S203	 0.860304	 0.198334	 1.000000 
S204	 0.860304	 0.198334	 0.000000 
Mo205	 0.804748	 0.294559	 0.500000 
Mo206	 0.888082	 0.246446	 0.500000 
S207	 0.860304	 0.294559	 1.000000 
S208	 0.860304	 0.294559	 0.000000 
S209	 0.776971	 0.342672	 1.000000 
S210	 0.776971	 0.342672	 0.000000 
Mo211	 0.721415	 0.438897	 0.500000 
Mo212	 0.804748	 0.390784	 0.500000 
S213	 0.776971	 0.438897	 1.000000 
S214	 0.776971	 0.438897	 0.000000 
S215	 0.693637	 0.487009	 1.000000 
S216	 0.693637	 0.487009	 0.000000 
Mo217	 0.638082	 0.583234	 0.500000 
Mo218	 0.721415	 0.535122	 0.500000 
S219	 0.693637	 0.583234	 1.000000 
S220	 0.693637	 0.583234	 0.000000 
S221	 0.610304	 0.631347	 1.000000 
S222	 0.610304	 0.631347	 0.000000 
Mo223	 0.554748	 0.727572	 0.500000 
Mo224	 0.638082	 0.679459	 0.500000 
S225	 0.610304	 0.727572	 1.000000 
S226	 0.610304	 0.727572	 0.000000 
S227	 0.526971	 0.775684	 1.000000 
S228	 0.526971	 0.775684	 0.000000 
Mo229	 0.471415	 0.871909	 0.500000 
Mo230	 0.554748	 0.823797	 0.500000 
S231	 0.526971	 0.871909	 1.000000 
S232	 0.526971	 0.871909	 0.000000 
S233	 0.443637	 0.920022	 1.000000 
S234	 0.443637	 0.920022	 0.000000 
Mo235	 0.888082	 0.150221	 0.500000 
Mo236	 0.471415	 0.968134	 0.500000 
S237	 0.943637	 0.246446	 1.000000 
S238	 0.943637	 0.246446	 0.000000 
Mo239	 0.888082	 0.342672	 0.500000 
Mo240	 0.971415	 0.294559	 0.500000 
S241	 0.943637	 0.342672	 1.000000 
S242	 0.943637	 0.342672	 0.000000 
S243	 0.860304	 0.390784	 1.000000 
S244	 0.860304	 0.390784	 0.000000 
Mo245	 0.804748	 0.487009	 0.500000 
Mo246	 0.888082	 0.438897	 0.500000 
S247	 0.860304	 0.487009	 1.000000 
S248	 0.860304	 0.487009	 0.000000 
S249	 0.776971	 0.535122	 1.000000 
S250	 0.776971	 0.535122	 0.000000 
Mo251	 0.721415	 0.631347	 0.500000 
Mo252	 0.804748	 0.583234	 0.500000 
S253	 0.776971	 0.631347	 1.000000 
S254	 0.776971	 0.631347	 0.000000 
S255	 0.693637	 0.679459	 1.000000 
S256	 0.693637	 0.679459	 0.000000 
Mo257	 0.638082	 0.775684	 0.500000 
Mo258	 0.721415	 0.727572	 0.500000 
S259	 0.693637	 0.775684	 1.000000 
S260	 0.693637	 0.775684	 0.000000 
S261	 0.610304	 0.823797	 1.000000 
S262	 0.610304	 0.823797	 0.000000 
Mo263	 0.554748	 0.920022	 0.500000 
Mo264	 0.638082	 0.871909	 0.500000 
S265	 0.610304	 0.920022	 1.000000 
S266	 0.610304	 0.920022	 0.000000 
S267	 0.526971	 0.968134	 1.000000 
S268	 0.526971	 0.968134	 0.000000 
Mo269	 0.971415	 0.198334	 0.500000 
Mo270	 0.971415	 0.390784	 0.500000 
S271	 0.943637	 0.438897	 1.000000 
S272	 0.943637	 0.438897	 0.000000 
Mo273	 0.888082	 0.535122	 0.500000 
Mo274	 0.971415	 0.487009	 0.500000 
S275	 0.943637	 0.535122	 1.000000 
S276	 0.943637	 0.535122	 0.000000 
S277	 0.860304	 0.583234	 1.000000 
S278	 0.860304	 0.583234	 0.000000 
Mo279	 0.804748	 0.679459	 0.500000 
Mo280	 0.888082	 0.631347	 0.500000 
S281	 0.860304	 0.679459	 1.000000 
S282	 0.860304	 0.679459	 0.000000 
S283	 0.776971	 0.727572	 1.000000 
S284	 0.776971	 0.727572	 0.000000 
Mo285	 0.721415	 0.823797	 0.500000 
Mo286	 0.804748	 0.775684	 0.500000 
S287	 0.776971	 0.823797	 1.000000 
S288	 0.776971	 0.823797	 0.000000 
S289	 0.693637	 0.871909	 1.000000 
S290	 0.693637	 0.871909	 0.000000 
Mo291	 0.638082	 0.968134	 0.500000 
Mo292	 0.721415	 0.920022	 0.500000 
S293	 0.693637	 0.968134	 1.000000 
S294	 0.693637	 0.968134	 0.000000 
Mo295	 0.971415	 0.583234	 0.500000 
Mo296	 0.221415	 0.053996	 0.500000 
S297	 0.193637	 0.102109	 1.000000 
S298	 0.193637	 0.102109	 0.000000 
S299	 0.943637	 0.631347	 1.000000 
S300	 0.943637	 0.631347	 0.000000 
Mo301	 0.888082	 0.727572	 0.500000 
Mo302	 0.138082	 0.198334	 0.500000 
S303	 0.110304	 0.246446	 1.000000 
S304	 0.110304	 0.246446	 0.000000 
S305	 0.860304	 0.775684	 1.000000 
S306	 0.860304	 0.775684	 0.000000 
Mo307	 0.804748	 0.871909	 0.500000 
Mo308	 0.054748	 0.342672	 0.500000 
S309	 0.026971	 0.390784	 1.000000 
S310	 0.026971	 0.390784	 0.000000 
S311	 0.776971	 0.920022	 1.000000 
S312	 0.776971	 0.920022	 0.000000 
#                 ---end-of-data-block---
