data_Single Layer of MoS2nx 10 ny 6 nz 1
_cell_length_a               32.423991
_cell_length_b               32.423991
_cell_length_c               3.080000
_cell_angle_alpha          90.000000
_cell_angle_beta           90.000000
_cell_angle_gamma          90.000000
_symmetry_cell_setting          Triclinic
_symmetry_space_group_name_H-M 'P 1' 
loop_
_atom_site_label
_atom_site_fract_x
_atom_site_fract_y
_atom_site_fract_z
Mo1	 0.343058	 0.002012	 0.500000 
S2	 0.398613	 0.002012	 1.000000 
S3	 0.398613	 0.002012	 0.000000 
S4	 0.315280	 0.050125	 1.000000 
S5	 0.315280	 0.050125	 0.000000 
Mo6	 0.259725	 0.146350	 0.500000 
Mo7	 0.343058	 0.098237	 0.500000 
S8	 0.315280	 0.146350	 1.000000 
S9	 0.315280	 0.146350	 0.000000 
S10	 0.231947	 0.194462	 1.000000 
S11	 0.231947	 0.194462	 0.000000 
Mo12	 0.176391	 0.290687	 0.500000 
Mo13	 0.259725	 0.242575	 0.500000 
S14	 0.231947	 0.290687	 1.000000 
S15	 0.231947	 0.290687	 0.000000 
S16	 0.148613	 0.338800	 1.000000 
S17	 0.148613	 0.338800	 0.000000 
Mo18	 0.093058	 0.435025	 0.500000 
Mo19	 0.176391	 0.386912	 0.500000 
S20	 0.148613	 0.435025	 1.000000 
S21	 0.148613	 0.435025	 0.000000 
S22	 0.065280	 0.483137	 1.000000 
S23	 0.065280	 0.483137	 0.000000 
Mo24	 0.009725	 0.579362	 0.500000 
Mo25	 0.093058	 0.531250	 0.500000 
S26	 0.065280	 0.579362	 1.000000 
S27	 0.065280	 0.579362	 0.000000 
Mo28	 0.009725	 0.675587	 0.500000 
Mo29	 0.426391	 0.050125	 0.500000 
Mo30	 0.509725	 0.002012	 0.500000 
S31	 0.481947	 0.050125	 1.000000 
S32	 0.481947	 0.050125	 0.000000 
S33	 0.398613	 0.098237	 1.000000 
S34	 0.398613	 0.098237	 0.000000 
Mo35	 0.343058	 0.194462	 0.500000 
Mo36	 0.426391	 0.146350	 0.500000 
S37	 0.398613	 0.194462	 1.000000 
S38	 0.398613	 0.194462	 0.000000 
S39	 0.315280	 0.242575	 1.000000 
S40	 0.315280	 0.242575	 0.000000 
Mo41	 0.259725	 0.338800	 0.500000 
Mo42	 0.343058	 0.290687	 0.500000 
S43	 0.315280	 0.338800	 1.000000 
S44	 0.315280	 0.338800	 0.000000 
S45	 0.231947	 0.386912	 1.000000 
S46	 0.231947	 0.386912	 0.000000 
Mo47	 0.176391	 0.483137	 0.500000 
Mo48	 0.259725	 0.435025	 0.500000 
S49	 0.231947	 0.483137	 1.000000 
S50	 0.231947	 0.483137	 0.000000 
S51	 0.148613	 0.531250	 1.000000 
S52	 0.148613	 0.531250	 0.000000 
Mo53	 0.093058	 0.627475	 0.500000 
Mo54	 0.176391	 0.579362	 0.500000 
S55	 0.148613	 0.627475	 1.000000 
S56	 0.148613	 0.627475	 0.000000 
S57	 0.065280	 0.675587	 1.000000 
S58	 0.065280	 0.675587	 0.000000 
Mo59	 0.009725	 0.771813	 0.500000 
Mo60	 0.093058	 0.723700	 0.500000 
S61	 0.065280	 0.771813	 1.000000 
S62	 0.065280	 0.771813	 0.000000 
S63	 0.565280	 0.002012	 1.000000 
S64	 0.565280	 0.002012	 0.000000 
Mo65	 0.509725	 0.098237	 0.500000 
Mo66	 0.593058	 0.050125	 0.500000 
S67	 0.565280	 0.098237	 1.000000 
S68	 0.565280	 0.098237	 0.000000 
S69	 0.481947	 0.146350	 1.000000 
S70	 0.481947	 0.146350	 0.000000 
Mo71	 0.426391	 0.242575	 0.500000 
Mo72	 0.509725	 0.194462	 0.500000 
S73	 0.481947	 0.242575	 1.000000 
S74	 0.481947	 0.242575	 0.000000 
S75	 0.398613	 0.290687	 1.000000 
S76	 0.398613	 0.290687	 0.000000 
Mo77	 0.343058	 0.386912	 0.500000 
Mo78	 0.426391	 0.338800	 0.500000 
S79	 0.398613	 0.386912	 1.000000 
S80	 0.398613	 0.386912	 0.000000 
S81	 0.315280	 0.435025	 1.000000 
S82	 0.315280	 0.435025	 0.000000 
Mo83	 0.259725	 0.531250	 0.500000 
Mo84	 0.343058	 0.483137	 0.500000 
S85	 0.315280	 0.531250	 1.000000 
S86	 0.315280	 0.531250	 0.000000 
S87	 0.231947	 0.579362	 1.000000 
S88	 0.231947	 0.579362	 0.000000 
Mo89	 0.176391	 0.675587	 0.500000 
Mo90	 0.259725	 0.627475	 0.500000 
S91	 0.231947	 0.675587	 1.000000 
S92	 0.231947	 0.675587	 0.000000 
S93	 0.148613	 0.723700	 1.000000 
S94	 0.148613	 0.723700	 0.000000 
Mo95	 0.093058	 0.819925	 0.500000 
Mo96	 0.176391	 0.771813	 0.500000 
S97	 0.148613	 0.819925	 1.000000 
S98	 0.148613	 0.819925	 0.000000 
S99	 0.648613	 0.050125	 1.000000 
S100	 0.648613	 0.050125	 0.000000 
Mo101	 0.593058	 0.146350	 0.500000 
Mo102	 0.676391	 0.098237	 0.500000 
S103	 0.648613	 0.146350	 1.000000 
S104	 0.648613	 0.146350	 0.000000 
S105	 0.565280	 0.194462	 1.000000 
S106	 0.565280	 0.194462	 0.000000 
Mo107	 0.509725	 0.290687	 0.500000 
Mo108	 0.593058	 0.242575	 0.500000 
S109	 0.565280	 0.290687	 1.000000 
S110	 0.565280	 0.290687	 0.000000 
S111	 0.481947	 0.338800	 1.000000 
S112	 0.481947	 0.338800	 0.000000 
Mo113	 0.426391	 0.435025	 0.500000 
Mo114	 0.509725	 0.386912	 0.500000 
S115	 0.481947	 0.435025	 1.000000 
S116	 0.481947	 0.435025	 0.000000 
S117	 0.398613	 0.483137	 1.000000 
S118	 0.398613	 0.483137	 0.000000 
Mo119	 0.343058	 0.579362	 0.500000 
Mo120	 0.426391	 0.531250	 0.500000 
S121	 0.398613	 0.579362	 1.000000 
S122	 0.398613	 0.579362	 0.000000 
S123	 0.315280	 0.627475	 1.000000 
S124	 0.315280	 0.627475	 0.000000 
Mo125	 0.259725	 0.723700	 0.500000 
Mo126	 0.343058	 0.675587	 0.500000 
S127	 0.315280	 0.723700	 1.000000 
S128	 0.315280	 0.723700	 0.000000 
S129	 0.231947	 0.771813	 1.000000 
S130	 0.231947	 0.771813	 0.000000 
Mo131	 0.176391	 0.868038	 0.500000 
Mo132	 0.259725	 0.819925	 0.500000 
S133	 0.231947	 0.868038	 1.000000 
S134	 0.231947	 0.868038	 0.000000 
S135	 0.731947	 0.098237	 1.000000 
S136	 0.731947	 0.098237	 0.000000 
Mo137	 0.676391	 0.194462	 0.500000 
Mo138	 0.759725	 0.146350	 0.500000 
S139	 0.731947	 0.194462	 1.000000 
S140	 0.731947	 0.194462	 0.000000 
S141	 0.648613	 0.242575	 1.000000 
S142	 0.648613	 0.242575	 0.000000 
Mo143	 0.593058	 0.338800	 0.500000 
Mo144	 0.676391	 0.290687	 0.500000 
S145	 0.648613	 0.338800	 1.000000 
S146	 0.648613	 0.338800	 0.000000 
S147	 0.565280	 0.386912	 1.000000 
S148	 0.565280	 0.386912	 0.000000 
Mo149	 0.509725	 0.483137	 0.500000 
Mo150	 0.593058	 0.435025	 0.500000 
S151	 0.565280	 0.483137	 1.000000 
S152	 0.565280	 0.483137	 0.000000 
S153	 0.481947	 0.531250	 1.000000 
S154	 0.481947	 0.531250	 0.000000 
Mo155	 0.426391	 0.627475	 0.500000 
Mo156	 0.509725	 0.579362	 0.500000 
S157	 0.481947	 0.627475	 1.000000 
S158	 0.481947	 0.627475	 0.000000 
S159	 0.398613	 0.675587	 1.000000 
S160	 0.398613	 0.675587	 0.000000 
Mo161	 0.343058	 0.771813	 0.500000 
Mo162	 0.426391	 0.723700	 0.500000 
S163	 0.398613	 0.771813	 1.000000 
S164	 0.398613	 0.771813	 0.000000 
S165	 0.315280	 0.819925	 1.000000 
S166	 0.315280	 0.819925	 0.000000 
Mo167	 0.259725	 0.916150	 0.500000 
Mo168	 0.343058	 0.868038	 0.500000 
S169	 0.315280	 0.916150	 1.000000 
S170	 0.315280	 0.916150	 0.000000 
S171	 0.815280	 0.146350	 1.000000 
S172	 0.815280	 0.146350	 0.000000 
Mo173	 0.759725	 0.242575	 0.500000 
Mo174	 0.843058	 0.194462	 0.500000 
S175	 0.815280	 0.242575	 1.000000 
S176	 0.815280	 0.242575	 0.000000 
S177	 0.731947	 0.290687	 1.000000 
S178	 0.731947	 0.290687	 0.000000 
Mo179	 0.676391	 0.386912	 0.500000 
Mo180	 0.759725	 0.338800	 0.500000 
S181	 0.731947	 0.386912	 1.000000 
S182	 0.731947	 0.386912	 0.000000 
S183	 0.648613	 0.435025	 1.000000 
S184	 0.648613	 0.435025	 0.000000 
Mo185	 0.593058	 0.531250	 0.500000 
Mo186	 0.676391	 0.483137	 0.500000 
S187	 0.648613	 0.531250	 1.000000 
S188	 0.648613	 0.531250	 0.000000 
S189	 0.565280	 0.579362	 1.000000 
S190	 0.565280	 0.579362	 0.000000 
Mo191	 0.509725	 0.675587	 0.500000 
Mo192	 0.593058	 0.627475	 0.500000 
S193	 0.565280	 0.675587	 1.000000 
S194	 0.565280	 0.675587	 0.000000 
S195	 0.481947	 0.723700	 1.000000 
S196	 0.481947	 0.723700	 0.000000 
Mo197	 0.426391	 0.819925	 0.500000 
Mo198	 0.509725	 0.771813	 0.500000 
S199	 0.481947	 0.819925	 1.000000 
S200	 0.481947	 0.819925	 0.000000 
S201	 0.398613	 0.868038	 1.000000 
S202	 0.398613	 0.868038	 0.000000 
Mo203	 0.343058	 0.964263	 0.500000 
Mo204	 0.426391	 0.916150	 0.500000 
S205	 0.398613	 0.964263	 1.000000 
S206	 0.398613	 0.964263	 0.000000 
S207	 0.898613	 0.194462	 1.000000 
S208	 0.898613	 0.194462	 0.000000 
Mo209	 0.843058	 0.290687	 0.500000 
Mo210	 0.926391	 0.242575	 0.500000 
S211	 0.898613	 0.290687	 1.000000 
S212	 0.898613	 0.290687	 0.000000 
S213	 0.815280	 0.338800	 1.000000 
S214	 0.815280	 0.338800	 0.000000 
Mo215	 0.759725	 0.435025	 0.500000 
Mo216	 0.843058	 0.386912	 0.500000 
S217	 0.815280	 0.435025	 1.000000 
S218	 0.815280	 0.435025	 0.000000 
S219	 0.731947	 0.483137	 1.000000 
S220	 0.731947	 0.483137	 0.000000 
Mo221	 0.676391	 0.579362	 0.500000 
Mo222	 0.759725	 0.531250	 0.500000 
S223	 0.731947	 0.579362	 1.000000 
S224	 0.731947	 0.579362	 0.000000 
S225	 0.648613	 0.627475	 1.000000 
S226	 0.648613	 0.627475	 0.000000 
Mo227	 0.593058	 0.723700	 0.500000 
Mo228	 0.676391	 0.675587	 0.500000 
S229	 0.648613	 0.723700	 1.000000 
S230	 0.648613	 0.723700	 0.000000 
S231	 0.565280	 0.771813	 1.000000 
S232	 0.565280	 0.771813	 0.000000 
Mo233	 0.509725	 0.868038	 0.500000 
Mo234	 0.593058	 0.819925	 0.500000 
S235	 0.565280	 0.868038	 1.000000 
S236	 0.565280	 0.868038	 0.000000 
S237	 0.481947	 0.916150	 1.000000 
S238	 0.481947	 0.916150	 0.000000 
Mo239	 0.509725	 0.964263	 0.500000 
S240	 0.981947	 0.242575	 1.000000 
S241	 0.981947	 0.242575	 0.000000 
Mo242	 0.926391	 0.338800	 0.500000 
S243	 0.981947	 0.338800	 1.000000 
S244	 0.981947	 0.338800	 0.000000 
S245	 0.898613	 0.386912	 1.000000 
S246	 0.898613	 0.386912	 0.000000 
Mo247	 0.843058	 0.483137	 0.500000 
Mo248	 0.926391	 0.435025	 0.500000 
S249	 0.898613	 0.483137	 1.000000 
S250	 0.898613	 0.483137	 0.000000 
S251	 0.815280	 0.531250	 1.000000 
S252	 0.815280	 0.531250	 0.000000 
Mo253	 0.759725	 0.627475	 0.500000 
Mo254	 0.843058	 0.579362	 0.500000 
S255	 0.815280	 0.627475	 1.000000 
S256	 0.815280	 0.627475	 0.000000 
S257	 0.731947	 0.675587	 1.000000 
S258	 0.731947	 0.675587	 0.000000 
Mo259	 0.676391	 0.771813	 0.500000 
Mo260	 0.759725	 0.723700	 0.500000 
S261	 0.731947	 0.771813	 1.000000 
S262	 0.731947	 0.771813	 0.000000 
S263	 0.648613	 0.819925	 1.000000 
S264	 0.648613	 0.819925	 0.000000 
Mo265	 0.593058	 0.916150	 0.500000 
Mo266	 0.676391	 0.868038	 0.500000 
S267	 0.648613	 0.916150	 1.000000 
S268	 0.648613	 0.916150	 0.000000 
S269	 0.565280	 0.964263	 1.000000 
S270	 0.565280	 0.964263	 0.000000 
S271	 0.981947	 0.435025	 1.000000 
S272	 0.981947	 0.435025	 0.000000 
Mo273	 0.926391	 0.531250	 0.500000 
S274	 0.981947	 0.531250	 1.000000 
S275	 0.981947	 0.531250	 0.000000 
S276	 0.898613	 0.579362	 1.000000 
S277	 0.898613	 0.579362	 0.000000 
Mo278	 0.843058	 0.675587	 0.500000 
Mo279	 0.926391	 0.627475	 0.500000 
S280	 0.898613	 0.675587	 1.000000 
S281	 0.898613	 0.675587	 0.000000 
S282	 0.815280	 0.723700	 1.000000 
S283	 0.815280	 0.723700	 0.000000 
Mo284	 0.759725	 0.819925	 0.500000 
Mo285	 0.843058	 0.771813	 0.500000 
S286	 0.815280	 0.819925	 1.000000 
S287	 0.815280	 0.819925	 0.000000 
S288	 0.731947	 0.868038	 1.000000 
S289	 0.731947	 0.868038	 0.000000 
Mo290	 0.676391	 0.964263	 0.500000 
Mo291	 0.759725	 0.916150	 0.500000 
S292	 0.731947	 0.964263	 1.000000 
S293	 0.731947	 0.964263	 0.000000 
Mo294	 0.259725	 0.050125	 0.500000 
S295	 0.231947	 0.098237	 1.000000 
S296	 0.231947	 0.098237	 0.000000 
S297	 0.981947	 0.627475	 1.000000 
S298	 0.981947	 0.627475	 0.000000 
Mo299	 0.926391	 0.723700	 0.500000 
Mo300	 0.176391	 0.194462	 0.500000 
S301	 0.148613	 0.242575	 1.000000 
S302	 0.148613	 0.242575	 0.000000 
S303	 0.898613	 0.771813	 1.000000 
S304	 0.898613	 0.771813	 0.000000 
Mo305	 0.843058	 0.868038	 0.500000 
Mo306	 0.093058	 0.338800	 0.500000 
S307	 0.065280	 0.386912	 1.000000 
S308	 0.065280	 0.386912	 0.000000 
S309	 0.815280	 0.916150	 1.000000 
S310	 0.815280	 0.916150	 0.000000 
Mo311	 0.009725	 0.483137	 0.500000 
#                 ---end-of-data-block---
