data_Single Layer of MoS2nx 10 ny 6 nz 1
_cell_length_a               32.423991
_cell_length_b               32.423991
_cell_length_c               3.080000
_cell_angle_alpha          90.000000
_cell_angle_beta           90.000000
_cell_angle_gamma          90.000000
_symmetry_cell_setting          Triclinic
_symmetry_space_group_name_H-M 'P 1' 
loop_
_atom_site_label
_atom_site_fract_x
_atom_site_fract_y
_atom_site_fract_z
Mo1	 0.327313	 0.005145	 0.500000 
S2	 0.380975	 0.019524	 1.000000 
S3	 0.380975	 0.019524	 0.000000 
S4	 0.288029	 0.044429	 1.000000 
S5	 0.288029	 0.044429	 0.000000 
Mo6	 0.209462	 0.122996	 0.500000 
Mo7	 0.302408	 0.098091	 0.500000 
S8	 0.263124	 0.137375	 1.000000 
S9	 0.263124	 0.137375	 0.000000 
S10	 0.170178	 0.162280	 1.000000 
S11	 0.170178	 0.162280	 0.000000 
Mo12	 0.091610	 0.240847	 0.500000 
Mo13	 0.184557	 0.215942	 0.500000 
S14	 0.145273	 0.255226	 1.000000 
S15	 0.145273	 0.255226	 0.000000 
S16	 0.052327	 0.280131	 1.000000 
S17	 0.052327	 0.280131	 0.000000 
Mo18	 0.066706	 0.333793	 0.500000 
S19	 0.027422	 0.373077	 1.000000 
S20	 0.027422	 0.373077	 0.000000 
Mo21	 0.395354	 0.073186	 0.500000 
Mo22	 0.488300	 0.048281	 0.500000 
S23	 0.449017	 0.087565	 1.000000 
S24	 0.449017	 0.087565	 0.000000 
S25	 0.356070	 0.112470	 1.000000 
S26	 0.356070	 0.112470	 0.000000 
Mo27	 0.277503	 0.191037	 0.500000 
Mo28	 0.370449	 0.166132	 0.500000 
S29	 0.331166	 0.205416	 1.000000 
S30	 0.331166	 0.205416	 0.000000 
S31	 0.238219	 0.230321	 1.000000 
S32	 0.238219	 0.230321	 0.000000 
Mo33	 0.159652	 0.308888	 0.500000 
Mo34	 0.252598	 0.283984	 0.500000 
S35	 0.213314	 0.323267	 1.000000 
S36	 0.213314	 0.323267	 0.000000 
S37	 0.120368	 0.348172	 1.000000 
S38	 0.120368	 0.348172	 0.000000 
Mo39	 0.041801	 0.426740	 0.500000 
Mo40	 0.134747	 0.401835	 0.500000 
S41	 0.095463	 0.441118	 1.000000 
S42	 0.095463	 0.441118	 0.000000 
S43	 0.002517	 0.466023	 1.000000 
S44	 0.002517	 0.466023	 0.000000 
Mo45	 0.016896	 0.519686	 0.500000 
S46	 0.541963	 0.062660	 1.000000 
S47	 0.541963	 0.062660	 0.000000 
Mo48	 0.463395	 0.141228	 0.500000 
Mo49	 0.556342	 0.116323	 0.500000 
S50	 0.517058	 0.155606	 1.000000 
S51	 0.517058	 0.155606	 0.000000 
S52	 0.424112	 0.180511	 1.000000 
S53	 0.424112	 0.180511	 0.000000 
Mo54	 0.345544	 0.259079	 0.500000 
Mo55	 0.438491	 0.234174	 0.500000 
S56	 0.399207	 0.273458	 1.000000 
S57	 0.399207	 0.273458	 0.000000 
S58	 0.306261	 0.298362	 1.000000 
S59	 0.306261	 0.298362	 0.000000 
Mo60	 0.227693	 0.376930	 0.500000 
Mo61	 0.320639	 0.352025	 0.500000 
S62	 0.281356	 0.391309	 1.000000 
S63	 0.281356	 0.391309	 0.000000 
S64	 0.188410	 0.416214	 1.000000 
S65	 0.188410	 0.416214	 0.000000 
Mo66	 0.109842	 0.494781	 0.500000 
Mo67	 0.202788	 0.469876	 0.500000 
S68	 0.163505	 0.509160	 1.000000 
S69	 0.163505	 0.509160	 0.000000 
S70	 0.070558	 0.534065	 1.000000 
S71	 0.070558	 0.534065	 0.000000 
Mo72	 0.084937	 0.587727	 0.500000 
S73	 0.045654	 0.627011	 1.000000 
S74	 0.045654	 0.627011	 0.000000 
Mo75	 0.581247	 0.023376	 0.500000 
S76	 0.634909	 0.037755	 1.000000 
S77	 0.634909	 0.037755	 0.000000 
S78	 0.610004	 0.130702	 1.000000 
S79	 0.610004	 0.130702	 0.000000 
Mo80	 0.531437	 0.209269	 0.500000 
Mo81	 0.624383	 0.184364	 0.500000 
S82	 0.585099	 0.223648	 1.000000 
S83	 0.585099	 0.223648	 0.000000 
S84	 0.492153	 0.248553	 1.000000 
S85	 0.492153	 0.248553	 0.000000 
Mo86	 0.413586	 0.327120	 0.500000 
Mo87	 0.506532	 0.302215	 0.500000 
S88	 0.467248	 0.341499	 1.000000 
S89	 0.467248	 0.341499	 0.000000 
S90	 0.374302	 0.366404	 1.000000 
S91	 0.374302	 0.366404	 0.000000 
Mo92	 0.295735	 0.444971	 0.500000 
Mo93	 0.388681	 0.420066	 0.500000 
S94	 0.349397	 0.459350	 1.000000 
S95	 0.349397	 0.459350	 0.000000 
S96	 0.256451	 0.484255	 1.000000 
S97	 0.256451	 0.484255	 0.000000 
Mo98	 0.177883	 0.562822	 0.500000 
Mo99	 0.270830	 0.537917	 0.500000 
S100	 0.231546	 0.577201	 1.000000 
S101	 0.231546	 0.577201	 0.000000 
S102	 0.138600	 0.602106	 1.000000 
S103	 0.138600	 0.602106	 0.000000 
Mo104	 0.060032	 0.680673	 0.500000 
Mo105	 0.152979	 0.655769	 0.500000 
S106	 0.113695	 0.695052	 1.000000 
S107	 0.113695	 0.695052	 0.000000 
S108	 0.020749	 0.719957	 1.000000 
S109	 0.020749	 0.719957	 0.000000 
Mo110	 0.649288	 0.091418	 0.500000 
Mo111	 0.742234	 0.066513	 0.500000 
S112	 0.702951	 0.105797	 1.000000 
S113	 0.702951	 0.105797	 0.000000 
S114	 0.678046	 0.198743	 1.000000 
S115	 0.678046	 0.198743	 0.000000 
Mo116	 0.599478	 0.277310	 0.500000 
Mo117	 0.692424	 0.252405	 0.500000 
S118	 0.653141	 0.291689	 1.000000 
S119	 0.653141	 0.291689	 0.000000 
S120	 0.560195	 0.316594	 1.000000 
S121	 0.560195	 0.316594	 0.000000 
Mo122	 0.481627	 0.395161	 0.500000 
Mo123	 0.574573	 0.370257	 0.500000 
S124	 0.535290	 0.409540	 1.000000 
S125	 0.535290	 0.409540	 0.000000 
S126	 0.442343	 0.434445	 1.000000 
S127	 0.442343	 0.434445	 0.000000 
Mo128	 0.363776	 0.513013	 0.500000 
Mo129	 0.456722	 0.488108	 0.500000 
S130	 0.417439	 0.527391	 1.000000 
S131	 0.417439	 0.527391	 0.000000 
S132	 0.324492	 0.552296	 1.000000 
S133	 0.324492	 0.552296	 0.000000 
Mo134	 0.245925	 0.630864	 0.500000 
Mo135	 0.338871	 0.605959	 0.500000 
S136	 0.299587	 0.645243	 1.000000 
S137	 0.299587	 0.645243	 0.000000 
S138	 0.206641	 0.670147	 1.000000 
S139	 0.206641	 0.670147	 0.000000 
Mo140	 0.128074	 0.748715	 0.500000 
Mo141	 0.221020	 0.723810	 0.500000 
S142	 0.181736	 0.763094	 1.000000 
S143	 0.181736	 0.763094	 0.000000 
S144	 0.088790	 0.787999	 1.000000 
S145	 0.088790	 0.787999	 0.000000 
Mo146	 0.717329	 0.159459	 0.500000 
Mo147	 0.810276	 0.134554	 0.500000 
S148	 0.770992	 0.173838	 1.000000 
S149	 0.770992	 0.173838	 0.000000 
S150	 0.746087	 0.266784	 1.000000 
S151	 0.746087	 0.266784	 0.000000 
Mo152	 0.667520	 0.345352	 0.500000 
Mo153	 0.760466	 0.320447	 0.500000 
S154	 0.721182	 0.359731	 1.000000 
S155	 0.721182	 0.359731	 0.000000 
S156	 0.628236	 0.384635	 1.000000 
S157	 0.628236	 0.384635	 0.000000 
Mo158	 0.549668	 0.463203	 0.500000 
Mo159	 0.642615	 0.438298	 0.500000 
S160	 0.603331	 0.477582	 1.000000 
S161	 0.603331	 0.477582	 0.000000 
S162	 0.510385	 0.502487	 1.000000 
S163	 0.510385	 0.502487	 0.000000 
Mo164	 0.431817	 0.581054	 0.500000 
Mo165	 0.524764	 0.556149	 0.500000 
S166	 0.485480	 0.595433	 1.000000 
S167	 0.485480	 0.595433	 0.000000 
S168	 0.392534	 0.620338	 1.000000 
S169	 0.392534	 0.620338	 0.000000 
Mo170	 0.313966	 0.698905	 0.500000 
Mo171	 0.406912	 0.674000	 0.500000 
S172	 0.367629	 0.713284	 1.000000 
S173	 0.367629	 0.713284	 0.000000 
S174	 0.274683	 0.738189	 1.000000 
S175	 0.274683	 0.738189	 0.000000 
Mo176	 0.196115	 0.816756	 0.500000 
Mo177	 0.289061	 0.791851	 0.500000 
S178	 0.249778	 0.831135	 1.000000 
S179	 0.249778	 0.831135	 0.000000 
S180	 0.156831	 0.856040	 1.000000 
S181	 0.156831	 0.856040	 0.000000 
Mo182	 0.785371	 0.227501	 0.500000 
Mo183	 0.878317	 0.202596	 0.500000 
S184	 0.839033	 0.241879	 1.000000 
S185	 0.839033	 0.241879	 0.000000 
S186	 0.814128	 0.334826	 1.000000 
S187	 0.814128	 0.334826	 0.000000 
Mo188	 0.735561	 0.413393	 0.500000 
Mo189	 0.828507	 0.388488	 0.500000 
S190	 0.789224	 0.427772	 1.000000 
S191	 0.789224	 0.427772	 0.000000 
S192	 0.696277	 0.452677	 1.000000 
S193	 0.696277	 0.452677	 0.000000 
Mo194	 0.617710	 0.531244	 0.500000 
Mo195	 0.710656	 0.506339	 0.500000 
S196	 0.671372	 0.545623	 1.000000 
S197	 0.671372	 0.545623	 0.000000 
S198	 0.578426	 0.570528	 1.000000 
S199	 0.578426	 0.570528	 0.000000 
Mo200	 0.499859	 0.649095	 0.500000 
Mo201	 0.592805	 0.624190	 0.500000 
S202	 0.553521	 0.663474	 1.000000 
S203	 0.553521	 0.663474	 0.000000 
S204	 0.460575	 0.688379	 1.000000 
S205	 0.460575	 0.688379	 0.000000 
Mo206	 0.382008	 0.766946	 0.500000 
Mo207	 0.474954	 0.742042	 0.500000 
S208	 0.435670	 0.781325	 1.000000 
S209	 0.435670	 0.781325	 0.000000 
S210	 0.342724	 0.806230	 1.000000 
S211	 0.342724	 0.806230	 0.000000 
Mo212	 0.264156	 0.884798	 0.500000 
Mo213	 0.357103	 0.859893	 0.500000 
S214	 0.317819	 0.899176	 1.000000 
S215	 0.317819	 0.899176	 0.000000 
S216	 0.224873	 0.924081	 1.000000 
S217	 0.224873	 0.924081	 0.000000 
Mo218	 0.853412	 0.295542	 0.500000 
Mo219	 0.946358	 0.270637	 0.500000 
S220	 0.907075	 0.309921	 1.000000 
S221	 0.907075	 0.309921	 0.000000 
S222	 0.882170	 0.402867	 1.000000 
S223	 0.882170	 0.402867	 0.000000 
Mo224	 0.803602	 0.481434	 0.500000 
Mo225	 0.896549	 0.456530	 0.500000 
S226	 0.857265	 0.495813	 1.000000 
S227	 0.857265	 0.495813	 0.000000 
S228	 0.764319	 0.520718	 1.000000 
S229	 0.764319	 0.520718	 0.000000 
Mo230	 0.685751	 0.599286	 0.500000 
Mo231	 0.778698	 0.574381	 0.500000 
S232	 0.739414	 0.613664	 1.000000 
S233	 0.739414	 0.613664	 0.000000 
S234	 0.646468	 0.638569	 1.000000 
S235	 0.646468	 0.638569	 0.000000 
Mo236	 0.567900	 0.717137	 0.500000 
Mo237	 0.660846	 0.692232	 0.500000 
S238	 0.621563	 0.731516	 1.000000 
S239	 0.621563	 0.731516	 0.000000 
S240	 0.528616	 0.756420	 1.000000 
S241	 0.528616	 0.756420	 0.000000 
Mo242	 0.450049	 0.834988	 0.500000 
Mo243	 0.542995	 0.810083	 0.500000 
S244	 0.503712	 0.849367	 1.000000 
S245	 0.503712	 0.849367	 0.000000 
S246	 0.410765	 0.874272	 1.000000 
S247	 0.410765	 0.874272	 0.000000 
Mo248	 0.332198	 0.952839	 0.500000 
Mo249	 0.425144	 0.927934	 0.500000 
S250	 0.385860	 0.967218	 1.000000 
S251	 0.385860	 0.967218	 0.000000 
S252	 0.292914	 0.992123	 1.000000 
S253	 0.292914	 0.992123	 0.000000 
Mo254	 0.921454	 0.363583	 0.500000 
S255	 0.975116	 0.377962	 1.000000 
S256	 0.975116	 0.377962	 0.000000 
S257	 0.950211	 0.470908	 1.000000 
S258	 0.950211	 0.470908	 0.000000 
Mo259	 0.871644	 0.549476	 0.500000 
Mo260	 0.964590	 0.524571	 0.500000 
S261	 0.925306	 0.563855	 1.000000 
S262	 0.925306	 0.563855	 0.000000 
S263	 0.832360	 0.588760	 1.000000 
S264	 0.832360	 0.588760	 0.000000 
Mo265	 0.753793	 0.667327	 0.500000 
Mo266	 0.846739	 0.642422	 0.500000 
S267	 0.807455	 0.681706	 1.000000 
S268	 0.807455	 0.681706	 0.000000 
S269	 0.714509	 0.706611	 1.000000 
S270	 0.714509	 0.706611	 0.000000 
Mo271	 0.635942	 0.785178	 0.500000 
Mo272	 0.728888	 0.760273	 0.500000 
S273	 0.689604	 0.799557	 1.000000 
S274	 0.689604	 0.799557	 0.000000 
S275	 0.596658	 0.824462	 1.000000 
S276	 0.596658	 0.824462	 0.000000 
Mo277	 0.518090	 0.903029	 0.500000 
Mo278	 0.611037	 0.878124	 0.500000 
S279	 0.571753	 0.917408	 1.000000 
S280	 0.571753	 0.917408	 0.000000 
S281	 0.478807	 0.942313	 1.000000 
S282	 0.478807	 0.942313	 0.000000 
Mo283	 0.493186	 0.995976	 0.500000 
Mo284	 0.989495	 0.431625	 0.500000 
Mo285	 0.939685	 0.617517	 0.500000 
S286	 0.993348	 0.631896	 1.000000 
S287	 0.993348	 0.631896	 0.000000 
S288	 0.900401	 0.656801	 1.000000 
S289	 0.900401	 0.656801	 0.000000 
Mo290	 0.821834	 0.735368	 0.500000 
Mo291	 0.914780	 0.710464	 0.500000 
S292	 0.875497	 0.749747	 1.000000 
S293	 0.875497	 0.749747	 0.000000 
S294	 0.782550	 0.774652	 1.000000 
S295	 0.782550	 0.774652	 0.000000 
Mo296	 0.703983	 0.853220	 0.500000 
Mo297	 0.796929	 0.828315	 0.500000 
S298	 0.757645	 0.867598	 1.000000 
S299	 0.757645	 0.867598	 0.000000 
S300	 0.664699	 0.892503	 1.000000 
S301	 0.664699	 0.892503	 0.000000 
Mo302	 0.586132	 0.971071	 0.500000 
Mo303	 0.679078	 0.946166	 0.500000 
S304	 0.639794	 0.985449	 1.000000 
S305	 0.639794	 0.985449	 0.000000 
#                 ---end-of-data-block---
