data_Single Layer of MoS2nx 10 ny 6 nz 1
_cell_length_a               32.423991
_cell_length_b               32.423991
_cell_length_c               3.080000
_cell_angle_alpha          90.000000
_cell_angle_beta           90.000000
_cell_angle_gamma          90.000000
_symmetry_cell_setting          Triclinic
_symmetry_space_group_name_H-M 'P 1' 
loop_
_atom_site_label
_atom_site_fract_x
_atom_site_fract_y
_atom_site_fract_z
Mo1	 0.459279	 0.025197	 0.500000 
Mo2	 0.555504	 0.025197	 0.500000 
S3	 0.507392	 0.052974	 1.000000 
S4	 0.507392	 0.052974	 0.000000 
S5	 0.411167	 0.052974	 1.000000 
S6	 0.411167	 0.052974	 0.000000 
Mo7	 0.314942	 0.108530	 0.500000 
Mo8	 0.411167	 0.108530	 0.500000 
S9	 0.363054	 0.136308	 1.000000 
S10	 0.363054	 0.136308	 0.000000 
S11	 0.266829	 0.136308	 1.000000 
S12	 0.266829	 0.136308	 0.000000 
Mo13	 0.170604	 0.191863	 0.500000 
Mo14	 0.266829	 0.191863	 0.500000 
S15	 0.218716	 0.219641	 1.000000 
S16	 0.218716	 0.219641	 0.000000 
S17	 0.122491	 0.219641	 1.000000 
S18	 0.122491	 0.219641	 0.000000 
Mo19	 0.026266	 0.275197	 0.500000 
Mo20	 0.122491	 0.275197	 0.500000 
S21	 0.074379	 0.302974	 1.000000 
S22	 0.074379	 0.302974	 0.000000 
Mo23	 0.651729	 0.025197	 0.500000 
Mo24	 0.747954	 0.025197	 0.500000 
S25	 0.699842	 0.052974	 1.000000 
S26	 0.699842	 0.052974	 0.000000 
S27	 0.603617	 0.052974	 1.000000 
S28	 0.603617	 0.052974	 0.000000 
Mo29	 0.507392	 0.108530	 0.500000 
Mo30	 0.603617	 0.108530	 0.500000 
S31	 0.555504	 0.136308	 1.000000 
S32	 0.555504	 0.136308	 0.000000 
S33	 0.459279	 0.136308	 1.000000 
S34	 0.459279	 0.136308	 0.000000 
Mo35	 0.363054	 0.191863	 0.500000 
Mo36	 0.459279	 0.191863	 0.500000 
S37	 0.411167	 0.219641	 1.000000 
S38	 0.411167	 0.219641	 0.000000 
S39	 0.314942	 0.219641	 1.000000 
S40	 0.314942	 0.219641	 0.000000 
Mo41	 0.218716	 0.275197	 0.500000 
Mo42	 0.314942	 0.275197	 0.500000 
S43	 0.266829	 0.302974	 1.000000 
S44	 0.266829	 0.302974	 0.000000 
S45	 0.170604	 0.302974	 1.000000 
S46	 0.170604	 0.302974	 0.000000 
Mo47	 0.074379	 0.358530	 0.500000 
Mo48	 0.170604	 0.358530	 0.500000 
S49	 0.122491	 0.386308	 1.000000 
S50	 0.122491	 0.386308	 0.000000 
S51	 0.026266	 0.386308	 1.000000 
S52	 0.026266	 0.386308	 0.000000 
Mo53	 0.026266	 0.441863	 0.500000 
S54	 0.796067	 0.052974	 1.000000 
S55	 0.796067	 0.052974	 0.000000 
Mo56	 0.699842	 0.108530	 0.500000 
Mo57	 0.796067	 0.108530	 0.500000 
S58	 0.747954	 0.136308	 1.000000 
S59	 0.747954	 0.136308	 0.000000 
S60	 0.651729	 0.136308	 1.000000 
S61	 0.651729	 0.136308	 0.000000 
Mo62	 0.555504	 0.191863	 0.500000 
Mo63	 0.651729	 0.191863	 0.500000 
S64	 0.603617	 0.219641	 1.000000 
S65	 0.603617	 0.219641	 0.000000 
S66	 0.507392	 0.219641	 1.000000 
S67	 0.507392	 0.219641	 0.000000 
Mo68	 0.411167	 0.275197	 0.500000 
Mo69	 0.507392	 0.275197	 0.500000 
S70	 0.459279	 0.302974	 1.000000 
S71	 0.459279	 0.302974	 0.000000 
S72	 0.363054	 0.302974	 1.000000 
S73	 0.363054	 0.302974	 0.000000 
Mo74	 0.266829	 0.358530	 0.500000 
Mo75	 0.363054	 0.358530	 0.500000 
S76	 0.314942	 0.386308	 1.000000 
S77	 0.314942	 0.386308	 0.000000 
S78	 0.218716	 0.386308	 1.000000 
S79	 0.218716	 0.386308	 0.000000 
Mo80	 0.122491	 0.441863	 0.500000 
Mo81	 0.218716	 0.441863	 0.500000 
S82	 0.170604	 0.469641	 1.000000 
S83	 0.170604	 0.469641	 0.000000 
S84	 0.074379	 0.469641	 1.000000 
S85	 0.074379	 0.469641	 0.000000 
Mo86	 0.074379	 0.525197	 0.500000 
S87	 0.026266	 0.552974	 1.000000 
S88	 0.026266	 0.552974	 0.000000 
S89	 0.844179	 0.136308	 1.000000 
S90	 0.844179	 0.136308	 0.000000 
Mo91	 0.747954	 0.191863	 0.500000 
Mo92	 0.844179	 0.191863	 0.500000 
S93	 0.796067	 0.219641	 1.000000 
S94	 0.796067	 0.219641	 0.000000 
S95	 0.699842	 0.219641	 1.000000 
S96	 0.699842	 0.219641	 0.000000 
Mo97	 0.603617	 0.275197	 0.500000 
Mo98	 0.699842	 0.275197	 0.500000 
S99	 0.651729	 0.302974	 1.000000 
S100	 0.651729	 0.302974	 0.000000 
S101	 0.555504	 0.302974	 1.000000 
S102	 0.555504	 0.302974	 0.000000 
Mo103	 0.459279	 0.358530	 0.500000 
Mo104	 0.555504	 0.358530	 0.500000 
S105	 0.507392	 0.386308	 1.000000 
S106	 0.507392	 0.386308	 0.000000 
S107	 0.411167	 0.386308	 1.000000 
S108	 0.411167	 0.386308	 0.000000 
Mo109	 0.314942	 0.441863	 0.500000 
Mo110	 0.411167	 0.441863	 0.500000 
S111	 0.363054	 0.469641	 1.000000 
S112	 0.363054	 0.469641	 0.000000 
S113	 0.266829	 0.469641	 1.000000 
S114	 0.266829	 0.469641	 0.000000 
Mo115	 0.170604	 0.525197	 0.500000 
Mo116	 0.266829	 0.525197	 0.500000 
S117	 0.218716	 0.552974	 1.000000 
S118	 0.218716	 0.552974	 0.000000 
S119	 0.122491	 0.552974	 1.000000 
S120	 0.122491	 0.552974	 0.000000 
Mo121	 0.026266	 0.608530	 0.500000 
Mo122	 0.122491	 0.608530	 0.500000 
S123	 0.074379	 0.636308	 1.000000 
S124	 0.074379	 0.636308	 0.000000 
S125	 0.892292	 0.219641	 1.000000 
S126	 0.892292	 0.219641	 0.000000 
Mo127	 0.796067	 0.275197	 0.500000 
Mo128	 0.892292	 0.275197	 0.500000 
S129	 0.844179	 0.302974	 1.000000 
S130	 0.844179	 0.302974	 0.000000 
S131	 0.747954	 0.302974	 1.000000 
S132	 0.747954	 0.302974	 0.000000 
Mo133	 0.651729	 0.358530	 0.500000 
Mo134	 0.747954	 0.358530	 0.500000 
S135	 0.699842	 0.386308	 1.000000 
S136	 0.699842	 0.386308	 0.000000 
S137	 0.603617	 0.386308	 1.000000 
S138	 0.603617	 0.386308	 0.000000 
Mo139	 0.507392	 0.441863	 0.500000 
Mo140	 0.603617	 0.441863	 0.500000 
S141	 0.555504	 0.469641	 1.000000 
S142	 0.555504	 0.469641	 0.000000 
S143	 0.459279	 0.469641	 1.000000 
S144	 0.459279	 0.469641	 0.000000 
Mo145	 0.363054	 0.525197	 0.500000 
Mo146	 0.459279	 0.525197	 0.500000 
S147	 0.411167	 0.552974	 1.000000 
S148	 0.411167	 0.552974	 0.000000 
S149	 0.314942	 0.552974	 1.000000 
S150	 0.314942	 0.552974	 0.000000 
Mo151	 0.218716	 0.608530	 0.500000 
Mo152	 0.314942	 0.608530	 0.500000 
S153	 0.266829	 0.636308	 1.000000 
S154	 0.266829	 0.636308	 0.000000 
S155	 0.170604	 0.636308	 1.000000 
S156	 0.170604	 0.636308	 0.000000 
Mo157	 0.074379	 0.691863	 0.500000 
Mo158	 0.170604	 0.691863	 0.500000 
S159	 0.122491	 0.719641	 1.000000 
S160	 0.122491	 0.719641	 0.000000 
S161	 0.940404	 0.302974	 1.000000 
S162	 0.940404	 0.302974	 0.000000 
Mo163	 0.844179	 0.358530	 0.500000 
Mo164	 0.940404	 0.358530	 0.500000 
S165	 0.892292	 0.386308	 1.000000 
S166	 0.892292	 0.386308	 0.000000 
S167	 0.796067	 0.386308	 1.000000 
S168	 0.796067	 0.386308	 0.000000 
Mo169	 0.699842	 0.441863	 0.500000 
Mo170	 0.796067	 0.441863	 0.500000 
S171	 0.747954	 0.469641	 1.000000 
S172	 0.747954	 0.469641	 0.000000 
S173	 0.651729	 0.469641	 1.000000 
S174	 0.651729	 0.469641	 0.000000 
Mo175	 0.555504	 0.525197	 0.500000 
Mo176	 0.651729	 0.525197	 0.500000 
S177	 0.603617	 0.552974	 1.000000 
S178	 0.603617	 0.552974	 0.000000 
S179	 0.507392	 0.552974	 1.000000 
S180	 0.507392	 0.552974	 0.000000 
Mo181	 0.411167	 0.608530	 0.500000 
Mo182	 0.507392	 0.608530	 0.500000 
S183	 0.459279	 0.636308	 1.000000 
S184	 0.459279	 0.636308	 0.000000 
S185	 0.363054	 0.636308	 1.000000 
S186	 0.363054	 0.636308	 0.000000 
Mo187	 0.266829	 0.691863	 0.500000 
Mo188	 0.363054	 0.691863	 0.500000 
S189	 0.314942	 0.719641	 1.000000 
S190	 0.314942	 0.719641	 0.000000 
S191	 0.218716	 0.719641	 1.000000 
S192	 0.218716	 0.719641	 0.000000 
Mo193	 0.122491	 0.775197	 0.500000 
Mo194	 0.218716	 0.775197	 0.500000 
S195	 0.170604	 0.802974	 1.000000 
S196	 0.170604	 0.802974	 0.000000 
S197	 0.988517	 0.386308	 1.000000 
S198	 0.988517	 0.386308	 0.000000 
Mo199	 0.892292	 0.441863	 0.500000 
Mo200	 0.988517	 0.441863	 0.500000 
S201	 0.940404	 0.469641	 1.000000 
S202	 0.940404	 0.469641	 0.000000 
S203	 0.844179	 0.469641	 1.000000 
S204	 0.844179	 0.469641	 0.000000 
Mo205	 0.747954	 0.525197	 0.500000 
Mo206	 0.844179	 0.525197	 0.500000 
S207	 0.796067	 0.552974	 1.000000 
S208	 0.796067	 0.552974	 0.000000 
S209	 0.699842	 0.552974	 1.000000 
S210	 0.699842	 0.552974	 0.000000 
Mo211	 0.603617	 0.608530	 0.500000 
Mo212	 0.699842	 0.608530	 0.500000 
S213	 0.651729	 0.636308	 1.000000 
S214	 0.651729	 0.636308	 0.000000 
S215	 0.555504	 0.636308	 1.000000 
S216	 0.555504	 0.636308	 0.000000 
Mo217	 0.459279	 0.691863	 0.500000 
Mo218	 0.555504	 0.691863	 0.500000 
S219	 0.507392	 0.719641	 1.000000 
S220	 0.507392	 0.719641	 0.000000 
S221	 0.411167	 0.719641	 1.000000 
S222	 0.411167	 0.719641	 0.000000 
Mo223	 0.314942	 0.775197	 0.500000 
Mo224	 0.411167	 0.775197	 0.500000 
S225	 0.363054	 0.802974	 1.000000 
S226	 0.363054	 0.802974	 0.000000 
S227	 0.266829	 0.802974	 1.000000 
S228	 0.266829	 0.802974	 0.000000 
Mo229	 0.170604	 0.858530	 0.500000 
Mo230	 0.266829	 0.858530	 0.500000 
S231	 0.218716	 0.886308	 1.000000 
S232	 0.218716	 0.886308	 0.000000 
Mo233	 0.940404	 0.525197	 0.500000 
S234	 0.988517	 0.552974	 1.000000 
S235	 0.988517	 0.552974	 0.000000 
S236	 0.892292	 0.552974	 1.000000 
S237	 0.892292	 0.552974	 0.000000 
Mo238	 0.796067	 0.608530	 0.500000 
Mo239	 0.892292	 0.608530	 0.500000 
S240	 0.844179	 0.636308	 1.000000 
S241	 0.844179	 0.636308	 0.000000 
S242	 0.747954	 0.636308	 1.000000 
S243	 0.747954	 0.636308	 0.000000 
Mo244	 0.651729	 0.691863	 0.500000 
Mo245	 0.747954	 0.691863	 0.500000 
S246	 0.699842	 0.719641	 1.000000 
S247	 0.699842	 0.719641	 0.000000 
S248	 0.603617	 0.719641	 1.000000 
S249	 0.603617	 0.719641	 0.000000 
Mo250	 0.507392	 0.775197	 0.500000 
Mo251	 0.603617	 0.775197	 0.500000 
S252	 0.555504	 0.802974	 1.000000 
S253	 0.555504	 0.802974	 0.000000 
S254	 0.459279	 0.802974	 1.000000 
S255	 0.459279	 0.802974	 0.000000 
Mo256	 0.363054	 0.858530	 0.500000 
Mo257	 0.459279	 0.858530	 0.500000 
S258	 0.411167	 0.886308	 1.000000 
S259	 0.411167	 0.886308	 0.000000 
S260	 0.314942	 0.886308	 1.000000 
S261	 0.314942	 0.886308	 0.000000 
Mo262	 0.218716	 0.941863	 0.500000 
Mo263	 0.314942	 0.941863	 0.500000 
S264	 0.266829	 0.969641	 1.000000 
S265	 0.266829	 0.969641	 0.000000 
Mo266	 0.988517	 0.608530	 0.500000 
S267	 0.940404	 0.636308	 1.000000 
S268	 0.940404	 0.636308	 0.000000 
Mo269	 0.844179	 0.691863	 0.500000 
Mo270	 0.940404	 0.691863	 0.500000 
S271	 0.892292	 0.719641	 1.000000 
S272	 0.892292	 0.719641	 0.000000 
S273	 0.796067	 0.719641	 1.000000 
S274	 0.796067	 0.719641	 0.000000 
Mo275	 0.699842	 0.775197	 0.500000 
Mo276	 0.796067	 0.775197	 0.500000 
S277	 0.747954	 0.802974	 1.000000 
S278	 0.747954	 0.802974	 0.000000 
S279	 0.651729	 0.802974	 1.000000 
S280	 0.651729	 0.802974	 0.000000 
Mo281	 0.555504	 0.858530	 0.500000 
Mo282	 0.651729	 0.858530	 0.500000 
S283	 0.603617	 0.886308	 1.000000 
S284	 0.603617	 0.886308	 0.000000 
S285	 0.507392	 0.886308	 1.000000 
S286	 0.507392	 0.886308	 0.000000 
Mo287	 0.411167	 0.941863	 0.500000 
Mo288	 0.507392	 0.941863	 0.500000 
S289	 0.459279	 0.969641	 1.000000 
S290	 0.459279	 0.969641	 0.000000 
S291	 0.363054	 0.969641	 1.000000 
S292	 0.363054	 0.969641	 0.000000 
S293	 0.988517	 0.719641	 1.000000 
S294	 0.988517	 0.719641	 0.000000 
Mo295	 0.892292	 0.775197	 0.500000 
S296	 0.844179	 0.802974	 1.000000 
S297	 0.844179	 0.802974	 0.000000 
Mo298	 0.747954	 0.858530	 0.500000 
Mo299	 0.363054	 0.025197	 0.500000 
S300	 0.314942	 0.052974	 1.000000 
S301	 0.314942	 0.052974	 0.000000 
S302	 0.699842	 0.886308	 1.000000 
S303	 0.699842	 0.886308	 0.000000 
Mo304	 0.603617	 0.941863	 0.500000 
Mo305	 0.218716	 0.108530	 0.500000 
S306	 0.170604	 0.136308	 1.000000 
S307	 0.170604	 0.136308	 0.000000 
S308	 0.555504	 0.969641	 1.000000 
S309	 0.555504	 0.969641	 0.000000 
Mo310	 0.074379	 0.191863	 0.500000 
S311	 0.026266	 0.219641	 1.000000 
S312	 0.026266	 0.219641	 0.000000 
#                 ---end-of-data-block---
