data_Single Layer of MoS2nx 10 ny 6 nz 1
_cell_length_a               32.423991
_cell_length_b               32.423991
_cell_length_c               3.080000
_cell_angle_alpha          90.000000
_cell_angle_beta           90.000000
_cell_angle_gamma          90.000000
_symmetry_cell_setting          Triclinic
_symmetry_space_group_name_H-M 'P 1' 
loop_
_atom_site_label
_atom_site_fract_x
_atom_site_fract_y
_atom_site_fract_z
Mo1	 0.384919	 0.027906	 0.500000 
Mo2	 0.477865	 0.003001	 0.500000 
S3	 0.438581	 0.042285	 1.000000 
S4	 0.438581	 0.042285	 0.000000 
S5	 0.345635	 0.067190	 1.000000 
S6	 0.345635	 0.067190	 0.000000 
Mo7	 0.267067	 0.145757	 0.500000 
Mo8	 0.360014	 0.120853	 0.500000 
S9	 0.320730	 0.160136	 1.000000 
S10	 0.320730	 0.160136	 0.000000 
S11	 0.227784	 0.185041	 1.000000 
S12	 0.227784	 0.185041	 0.000000 
Mo13	 0.149216	 0.263609	 0.500000 
Mo14	 0.242163	 0.238704	 0.500000 
S15	 0.202879	 0.277987	 1.000000 
S16	 0.202879	 0.277987	 0.000000 
S17	 0.109933	 0.302892	 1.000000 
S18	 0.109933	 0.302892	 0.000000 
Mo19	 0.031365	 0.381460	 0.500000 
Mo20	 0.124311	 0.356555	 0.500000 
S21	 0.085028	 0.395839	 1.000000 
S22	 0.085028	 0.395839	 0.000000 
Mo23	 0.006460	 0.474406	 0.500000 
S24	 0.531527	 0.017380	 1.000000 
S25	 0.531527	 0.017380	 0.000000 
Mo26	 0.452960	 0.095948	 0.500000 
Mo27	 0.545906	 0.071043	 0.500000 
S28	 0.506623	 0.110327	 1.000000 
S29	 0.506623	 0.110327	 0.000000 
S30	 0.413676	 0.135231	 1.000000 
S31	 0.413676	 0.135231	 0.000000 
Mo32	 0.335109	 0.213799	 0.500000 
Mo33	 0.428055	 0.188894	 0.500000 
S34	 0.388771	 0.228178	 1.000000 
S35	 0.388771	 0.228178	 0.000000 
S36	 0.295825	 0.253083	 1.000000 
S37	 0.295825	 0.253083	 0.000000 
Mo38	 0.217258	 0.331650	 0.500000 
Mo39	 0.310204	 0.306745	 0.500000 
S40	 0.270920	 0.346029	 1.000000 
S41	 0.270920	 0.346029	 0.000000 
S42	 0.177974	 0.370934	 1.000000 
S43	 0.177974	 0.370934	 0.000000 
Mo44	 0.099407	 0.449501	 0.500000 
Mo45	 0.192353	 0.424596	 0.500000 
S46	 0.153069	 0.463880	 1.000000 
S47	 0.153069	 0.463880	 0.000000 
S48	 0.060123	 0.488785	 1.000000 
S49	 0.060123	 0.488785	 0.000000 
Mo50	 0.074502	 0.542447	 0.500000 
S51	 0.035218	 0.581731	 1.000000 
S52	 0.035218	 0.581731	 0.000000 
S53	 0.599569	 0.085422	 1.000000 
S54	 0.599569	 0.085422	 0.000000 
Mo55	 0.521001	 0.163989	 0.500000 
Mo56	 0.613948	 0.139084	 0.500000 
S57	 0.574664	 0.178368	 1.000000 
S58	 0.574664	 0.178368	 0.000000 
S59	 0.481718	 0.203273	 1.000000 
S60	 0.481718	 0.203273	 0.000000 
Mo61	 0.403150	 0.281840	 0.500000 
Mo62	 0.496096	 0.256935	 0.500000 
S63	 0.456813	 0.296219	 1.000000 
S64	 0.456813	 0.296219	 0.000000 
S65	 0.363867	 0.321124	 1.000000 
S66	 0.363867	 0.321124	 0.000000 
Mo67	 0.285299	 0.399691	 0.500000 
Mo68	 0.378245	 0.374786	 0.500000 
S69	 0.338962	 0.414070	 1.000000 
S70	 0.338962	 0.414070	 0.000000 
S71	 0.246015	 0.438975	 1.000000 
S72	 0.246015	 0.438975	 0.000000 
Mo73	 0.167448	 0.517542	 0.500000 
Mo74	 0.260394	 0.492638	 0.500000 
S75	 0.221111	 0.531921	 1.000000 
S76	 0.221111	 0.531921	 0.000000 
S77	 0.128164	 0.556826	 1.000000 
S78	 0.128164	 0.556826	 0.000000 
Mo79	 0.049597	 0.635394	 0.500000 
Mo80	 0.142543	 0.610489	 0.500000 
S81	 0.103259	 0.649772	 1.000000 
S82	 0.103259	 0.649772	 0.000000 
S83	 0.010313	 0.674677	 1.000000 
S84	 0.010313	 0.674677	 0.000000 
Mo85	 0.638852	 0.046138	 0.500000 
Mo86	 0.024692	 0.728340	 0.500000 
S87	 0.692515	 0.060517	 1.000000 
S88	 0.692515	 0.060517	 0.000000 
S89	 0.667610	 0.153463	 1.000000 
S90	 0.667610	 0.153463	 0.000000 
Mo91	 0.589043	 0.232030	 0.500000 
Mo92	 0.681989	 0.207126	 0.500000 
S93	 0.642705	 0.246409	 1.000000 
S94	 0.642705	 0.246409	 0.000000 
S95	 0.549759	 0.271314	 1.000000 
S96	 0.549759	 0.271314	 0.000000 
Mo97	 0.471192	 0.349882	 0.500000 
Mo98	 0.564138	 0.324977	 0.500000 
S99	 0.524854	 0.364260	 1.000000 
S100	 0.524854	 0.364260	 0.000000 
S101	 0.431908	 0.389165	 1.000000 
S102	 0.431908	 0.389165	 0.000000 
Mo103	 0.353340	 0.467733	 0.500000 
Mo104	 0.446287	 0.442828	 0.500000 
S105	 0.407003	 0.482112	 1.000000 
S106	 0.407003	 0.482112	 0.000000 
S107	 0.314057	 0.507016	 1.000000 
S108	 0.314057	 0.507016	 0.000000 
Mo109	 0.235489	 0.585584	 0.500000 
Mo110	 0.328436	 0.560679	 0.500000 
S111	 0.289152	 0.599963	 1.000000 
S112	 0.289152	 0.599963	 0.000000 
S113	 0.196206	 0.624868	 1.000000 
S114	 0.196206	 0.624868	 0.000000 
Mo115	 0.117638	 0.703435	 0.500000 
Mo116	 0.210584	 0.678530	 0.500000 
S117	 0.171301	 0.717814	 1.000000 
S118	 0.171301	 0.717814	 0.000000 
S119	 0.078355	 0.742719	 1.000000 
S120	 0.078355	 0.742719	 0.000000 
Mo121	 0.706894	 0.114179	 0.500000 
Mo122	 0.092733	 0.796381	 0.500000 
S123	 0.760556	 0.128558	 1.000000 
S124	 0.760556	 0.128558	 0.000000 
S125	 0.735652	 0.221504	 1.000000 
S126	 0.735652	 0.221504	 0.000000 
Mo127	 0.657084	 0.300072	 0.500000 
Mo128	 0.750030	 0.275167	 0.500000 
S129	 0.710747	 0.314451	 1.000000 
S130	 0.710747	 0.314451	 0.000000 
S131	 0.617800	 0.339356	 1.000000 
S132	 0.617800	 0.339356	 0.000000 
Mo133	 0.539233	 0.417923	 0.500000 
Mo134	 0.632179	 0.393018	 0.500000 
S135	 0.592896	 0.432302	 1.000000 
S136	 0.592896	 0.432302	 0.000000 
S137	 0.499949	 0.457207	 1.000000 
S138	 0.499949	 0.457207	 0.000000 
Mo139	 0.421382	 0.535774	 0.500000 
Mo140	 0.514328	 0.510869	 0.500000 
S141	 0.475044	 0.550153	 1.000000 
S142	 0.475044	 0.550153	 0.000000 
S143	 0.382098	 0.575058	 1.000000 
S144	 0.382098	 0.575058	 0.000000 
Mo145	 0.303531	 0.653625	 0.500000 
Mo146	 0.396477	 0.628720	 0.500000 
S147	 0.357193	 0.668004	 1.000000 
S148	 0.357193	 0.668004	 0.000000 
S149	 0.264247	 0.692909	 1.000000 
S150	 0.264247	 0.692909	 0.000000 
Mo151	 0.185680	 0.771476	 0.500000 
Mo152	 0.278626	 0.746572	 0.500000 
S153	 0.239342	 0.785855	 1.000000 
S154	 0.239342	 0.785855	 0.000000 
S155	 0.146396	 0.810760	 1.000000 
S156	 0.146396	 0.810760	 0.000000 
Mo157	 0.774935	 0.182221	 0.500000 
Mo158	 0.160775	 0.864423	 0.500000 
S159	 0.828598	 0.196600	 1.000000 
S160	 0.828598	 0.196600	 0.000000 
S161	 0.803693	 0.289546	 1.000000 
S162	 0.803693	 0.289546	 0.000000 
Mo163	 0.725126	 0.368113	 0.500000 
Mo164	 0.818072	 0.343208	 0.500000 
S165	 0.778788	 0.382492	 1.000000 
S166	 0.778788	 0.382492	 0.000000 
S167	 0.685842	 0.407397	 1.000000 
S168	 0.685842	 0.407397	 0.000000 
Mo169	 0.607274	 0.485964	 0.500000 
Mo170	 0.700221	 0.461060	 0.500000 
S171	 0.660937	 0.500343	 1.000000 
S172	 0.660937	 0.500343	 0.000000 
S173	 0.567991	 0.525248	 1.000000 
S174	 0.567991	 0.525248	 0.000000 
Mo175	 0.489423	 0.603816	 0.500000 
Mo176	 0.582370	 0.578911	 0.500000 
S177	 0.543086	 0.618194	 1.000000 
S178	 0.543086	 0.618194	 0.000000 
S179	 0.450140	 0.643099	 1.000000 
S180	 0.450140	 0.643099	 0.000000 
Mo181	 0.371572	 0.721667	 0.500000 
Mo182	 0.464518	 0.696762	 0.500000 
S183	 0.425235	 0.736045	 1.000000 
S184	 0.425235	 0.736045	 0.000000 
S185	 0.332288	 0.760950	 1.000000 
S186	 0.332288	 0.760950	 0.000000 
Mo187	 0.253721	 0.839518	 0.500000 
Mo188	 0.346667	 0.814613	 0.500000 
S189	 0.307384	 0.853897	 1.000000 
S190	 0.307384	 0.853897	 0.000000 
S191	 0.214437	 0.878801	 1.000000 
S192	 0.214437	 0.878801	 0.000000 
Mo193	 0.842977	 0.250262	 0.500000 
Mo194	 0.228816	 0.932464	 0.500000 
S195	 0.896639	 0.264641	 1.000000 
S196	 0.896639	 0.264641	 0.000000 
S197	 0.871734	 0.357587	 1.000000 
S198	 0.871734	 0.357587	 0.000000 
Mo199	 0.793167	 0.436155	 0.500000 
Mo200	 0.886113	 0.411250	 0.500000 
S201	 0.846829	 0.450533	 1.000000 
S202	 0.846829	 0.450533	 0.000000 
S203	 0.753883	 0.475438	 1.000000 
S204	 0.753883	 0.475438	 0.000000 
Mo205	 0.675316	 0.554006	 0.500000 
Mo206	 0.768262	 0.529101	 0.500000 
S207	 0.728978	 0.568385	 1.000000 
S208	 0.728978	 0.568385	 0.000000 
S209	 0.636032	 0.593289	 1.000000 
S210	 0.636032	 0.593289	 0.000000 
Mo211	 0.557465	 0.671857	 0.500000 
Mo212	 0.650411	 0.646952	 0.500000 
S213	 0.611127	 0.686236	 1.000000 
S214	 0.611127	 0.686236	 0.000000 
S215	 0.518181	 0.711141	 1.000000 
S216	 0.518181	 0.711141	 0.000000 
Mo217	 0.439613	 0.789708	 0.500000 
Mo218	 0.532560	 0.764803	 0.500000 
S219	 0.493276	 0.804087	 1.000000 
S220	 0.493276	 0.804087	 0.000000 
S221	 0.400330	 0.828992	 1.000000 
S222	 0.400330	 0.828992	 0.000000 
Mo223	 0.321762	 0.907559	 0.500000 
Mo224	 0.414709	 0.882654	 0.500000 
S225	 0.375425	 0.921938	 1.000000 
S226	 0.375425	 0.921938	 0.000000 
S227	 0.282479	 0.946843	 1.000000 
S228	 0.282479	 0.946843	 0.000000 
Mo229	 0.911018	 0.318303	 0.500000 
S230	 0.964681	 0.332682	 1.000000 
S231	 0.964681	 0.332682	 0.000000 
S232	 0.939776	 0.425629	 1.000000 
S233	 0.939776	 0.425629	 0.000000 
Mo234	 0.861208	 0.504196	 0.500000 
Mo235	 0.954155	 0.479291	 0.500000 
S236	 0.914871	 0.518575	 1.000000 
S237	 0.914871	 0.518575	 0.000000 
S238	 0.821925	 0.543480	 1.000000 
S239	 0.821925	 0.543480	 0.000000 
Mo240	 0.743357	 0.622047	 0.500000 
Mo241	 0.836303	 0.597142	 0.500000 
S242	 0.797020	 0.636426	 1.000000 
S243	 0.797020	 0.636426	 0.000000 
S244	 0.704073	 0.661331	 1.000000 
S245	 0.704073	 0.661331	 0.000000 
Mo246	 0.625506	 0.739898	 0.500000 
Mo247	 0.718452	 0.714993	 0.500000 
S248	 0.679169	 0.754277	 1.000000 
S249	 0.679169	 0.754277	 0.000000 
S250	 0.586222	 0.779182	 1.000000 
S251	 0.586222	 0.779182	 0.000000 
Mo252	 0.507655	 0.857749	 0.500000 
Mo253	 0.600601	 0.832845	 0.500000 
S254	 0.561317	 0.872128	 1.000000 
S255	 0.561317	 0.872128	 0.000000 
S256	 0.468371	 0.897033	 1.000000 
S257	 0.468371	 0.897033	 0.000000 
Mo258	 0.389804	 0.975601	 0.500000 
Mo259	 0.482750	 0.950696	 0.500000 
S260	 0.443466	 0.989979	 1.000000 
S261	 0.443466	 0.989979	 0.000000 
Mo262	 0.979059	 0.386345	 0.500000 
Mo263	 0.929250	 0.572237	 0.500000 
S264	 0.982912	 0.586616	 1.000000 
S265	 0.982912	 0.586616	 0.000000 
S266	 0.889966	 0.611521	 1.000000 
S267	 0.889966	 0.611521	 0.000000 
Mo268	 0.811399	 0.690089	 0.500000 
Mo269	 0.904345	 0.665184	 0.500000 
S270	 0.865061	 0.704467	 1.000000 
S271	 0.865061	 0.704467	 0.000000 
S272	 0.772115	 0.729372	 1.000000 
S273	 0.772115	 0.729372	 0.000000 
Mo274	 0.693547	 0.807940	 0.500000 
Mo275	 0.786494	 0.783035	 0.500000 
S276	 0.747210	 0.822318	 1.000000 
S277	 0.747210	 0.822318	 0.000000 
S278	 0.654264	 0.847223	 1.000000 
S279	 0.654264	 0.847223	 0.000000 
Mo280	 0.575696	 0.925791	 0.500000 
Mo281	 0.668643	 0.900886	 0.500000 
S282	 0.629359	 0.940170	 1.000000 
S283	 0.629359	 0.940170	 0.000000 
S284	 0.536413	 0.965074	 1.000000 
S285	 0.536413	 0.965074	 0.000000 
Mo286	 0.997291	 0.640279	 0.500000 
S287	 0.958007	 0.679562	 1.000000 
S288	 0.958007	 0.679562	 0.000000 
Mo289	 0.879440	 0.758130	 0.500000 
Mo290	 0.291972	 0.052811	 0.500000 
S291	 0.252689	 0.092095	 1.000000 
S292	 0.252689	 0.092095	 0.000000 
S293	 0.840156	 0.797414	 1.000000 
S294	 0.840156	 0.797414	 0.000000 
Mo295	 0.761589	 0.875981	 0.500000 
Mo296	 0.174121	 0.170662	 0.500000 
S297	 0.134838	 0.209946	 1.000000 
S298	 0.134838	 0.209946	 0.000000 
S299	 0.722305	 0.915265	 1.000000 
S300	 0.722305	 0.915265	 0.000000 
Mo301	 0.643738	 0.993832	 0.500000 
Mo302	 0.056270	 0.288513	 0.500000 
S303	 0.016986	 0.327797	 1.000000 
S304	 0.016986	 0.327797	 0.000000 
#                 ---end-of-data-block---
