data_Single Layer of MoS2nx 10 ny 6 nz 1
_cell_length_a               32.423991
_cell_length_b               32.423991
_cell_length_c               3.080000
_cell_angle_alpha          90.000000
_cell_angle_beta           90.000000
_cell_angle_gamma          90.000000
_symmetry_cell_setting          Triclinic
_symmetry_space_group_name_H-M 'P 1' 
loop_
_atom_site_label
_atom_site_fract_x
_atom_site_fract_y
_atom_site_fract_z
S1	 0.510308	 0.006581	 1.000000 
S2	 0.510308	 0.006581	 0.000000 
S3	 0.417362	 0.031486	 1.000000 
S4	 0.417362	 0.031486	 0.000000 
Mo5	 0.338794	 0.110053	 0.500000 
Mo6	 0.431741	 0.085148	 0.500000 
S7	 0.392457	 0.124432	 1.000000 
S8	 0.392457	 0.124432	 0.000000 
S9	 0.299511	 0.149337	 1.000000 
S10	 0.299511	 0.149337	 0.000000 
Mo11	 0.220943	 0.227904	 0.500000 
Mo12	 0.313890	 0.202999	 0.500000 
S13	 0.274606	 0.242283	 1.000000 
S14	 0.274606	 0.242283	 0.000000 
S15	 0.181660	 0.267188	 1.000000 
S16	 0.181660	 0.267188	 0.000000 
Mo17	 0.103092	 0.345755	 0.500000 
Mo18	 0.196038	 0.320850	 0.500000 
S19	 0.156755	 0.360134	 1.000000 
S20	 0.156755	 0.360134	 0.000000 
S21	 0.063808	 0.385039	 1.000000 
S22	 0.063808	 0.385039	 0.000000 
Mo23	 0.078187	 0.438702	 0.500000 
S24	 0.038904	 0.477985	 1.000000 
S25	 0.038904	 0.477985	 0.000000 
Mo26	 0.524687	 0.060243	 0.500000 
Mo27	 0.617633	 0.035338	 0.500000 
S28	 0.578349	 0.074622	 1.000000 
S29	 0.578349	 0.074622	 0.000000 
S30	 0.485403	 0.099527	 1.000000 
S31	 0.485403	 0.099527	 0.000000 
Mo32	 0.406836	 0.178094	 0.500000 
Mo33	 0.499782	 0.153190	 0.500000 
S34	 0.460498	 0.192473	 1.000000 
S35	 0.460498	 0.192473	 0.000000 
S36	 0.367552	 0.217378	 1.000000 
S37	 0.367552	 0.217378	 0.000000 
Mo38	 0.288985	 0.295946	 0.500000 
Mo39	 0.381931	 0.271041	 0.500000 
S40	 0.342647	 0.310324	 1.000000 
S41	 0.342647	 0.310324	 0.000000 
S42	 0.249701	 0.335229	 1.000000 
S43	 0.249701	 0.335229	 0.000000 
Mo44	 0.171134	 0.413797	 0.500000 
Mo45	 0.264080	 0.388892	 0.500000 
S46	 0.224796	 0.428175	 1.000000 
S47	 0.224796	 0.428175	 0.000000 
S48	 0.131850	 0.453080	 1.000000 
S49	 0.131850	 0.453080	 0.000000 
Mo50	 0.053282	 0.531648	 0.500000 
Mo51	 0.146229	 0.506743	 0.500000 
S52	 0.106945	 0.546027	 1.000000 
S53	 0.106945	 0.546027	 0.000000 
S54	 0.013999	 0.570931	 1.000000 
S55	 0.013999	 0.570931	 0.000000 
Mo56	 0.028378	 0.624594	 0.500000 
S57	 0.671296	 0.049717	 1.000000 
S58	 0.671296	 0.049717	 0.000000 
Mo59	 0.592728	 0.128285	 0.500000 
Mo60	 0.685675	 0.103380	 0.500000 
S61	 0.646391	 0.142663	 1.000000 
S62	 0.646391	 0.142663	 0.000000 
S63	 0.553445	 0.167568	 1.000000 
S64	 0.553445	 0.167568	 0.000000 
Mo65	 0.474877	 0.246136	 0.500000 
Mo66	 0.567823	 0.221231	 0.500000 
S67	 0.528540	 0.260515	 1.000000 
S68	 0.528540	 0.260515	 0.000000 
S69	 0.435593	 0.285419	 1.000000 
S70	 0.435593	 0.285419	 0.000000 
Mo71	 0.357026	 0.363987	 0.500000 
Mo72	 0.449972	 0.339082	 0.500000 
S73	 0.410689	 0.378366	 1.000000 
S74	 0.410689	 0.378366	 0.000000 
S75	 0.317742	 0.403271	 1.000000 
S76	 0.317742	 0.403271	 0.000000 
Mo77	 0.239175	 0.481838	 0.500000 
Mo78	 0.332121	 0.456933	 0.500000 
S79	 0.292837	 0.496217	 1.000000 
S80	 0.292837	 0.496217	 0.000000 
S81	 0.199891	 0.521122	 1.000000 
S82	 0.199891	 0.521122	 0.000000 
Mo83	 0.121324	 0.599689	 0.500000 
Mo84	 0.214270	 0.574784	 0.500000 
S85	 0.174986	 0.614068	 1.000000 
S86	 0.174986	 0.614068	 0.000000 
S87	 0.082040	 0.638973	 1.000000 
S88	 0.082040	 0.638973	 0.000000 
Mo89	 0.710579	 0.010433	 0.500000 
Mo90	 0.096419	 0.692635	 0.500000 
S91	 0.057135	 0.731919	 1.000000 
S92	 0.057135	 0.731919	 0.000000 
S93	 0.739337	 0.117759	 1.000000 
S94	 0.739337	 0.117759	 0.000000 
Mo95	 0.660770	 0.196326	 0.500000 
Mo96	 0.753716	 0.171421	 0.500000 
S97	 0.714432	 0.210705	 1.000000 
S98	 0.714432	 0.210705	 0.000000 
S99	 0.621486	 0.235610	 1.000000 
S100	 0.621486	 0.235610	 0.000000 
Mo101	 0.542919	 0.314177	 0.500000 
Mo102	 0.635865	 0.289272	 0.500000 
S103	 0.596581	 0.328556	 1.000000 
S104	 0.596581	 0.328556	 0.000000 
S105	 0.503635	 0.353461	 1.000000 
S106	 0.503635	 0.353461	 0.000000 
Mo107	 0.425067	 0.432028	 0.500000 
Mo108	 0.518014	 0.407123	 0.500000 
S109	 0.478730	 0.446407	 1.000000 
S110	 0.478730	 0.446407	 0.000000 
S111	 0.385784	 0.471312	 1.000000 
S112	 0.385784	 0.471312	 0.000000 
Mo113	 0.307216	 0.549879	 0.500000 
Mo114	 0.400163	 0.524975	 0.500000 
S115	 0.360879	 0.564258	 1.000000 
S116	 0.360879	 0.564258	 0.000000 
S117	 0.267933	 0.589163	 1.000000 
S118	 0.267933	 0.589163	 0.000000 
Mo119	 0.189365	 0.667731	 0.500000 
Mo120	 0.282311	 0.642826	 0.500000 
S121	 0.243028	 0.682109	 1.000000 
S122	 0.243028	 0.682109	 0.000000 
S123	 0.150081	 0.707014	 1.000000 
S124	 0.150081	 0.707014	 0.000000 
Mo125	 0.778621	 0.078475	 0.500000 
Mo126	 0.164460	 0.760677	 0.500000 
S127	 0.125177	 0.799960	 1.000000 
S128	 0.125177	 0.799960	 0.000000 
S129	 0.807378	 0.185800	 1.000000 
S130	 0.807378	 0.185800	 0.000000 
Mo131	 0.728811	 0.264367	 0.500000 
Mo132	 0.821757	 0.239463	 0.500000 
S133	 0.782474	 0.278746	 1.000000 
S134	 0.782474	 0.278746	 0.000000 
S135	 0.689527	 0.303651	 1.000000 
S136	 0.689527	 0.303651	 0.000000 
Mo137	 0.610960	 0.382219	 0.500000 
Mo138	 0.703906	 0.357314	 0.500000 
S139	 0.664622	 0.396597	 1.000000 
S140	 0.664622	 0.396597	 0.000000 
S141	 0.571676	 0.421502	 1.000000 
S142	 0.571676	 0.421502	 0.000000 
Mo143	 0.493109	 0.500070	 0.500000 
Mo144	 0.586055	 0.475165	 0.500000 
S145	 0.546771	 0.514448	 1.000000 
S146	 0.546771	 0.514448	 0.000000 
S147	 0.453825	 0.539353	 1.000000 
S148	 0.453825	 0.539353	 0.000000 
Mo149	 0.375258	 0.617921	 0.500000 
Mo150	 0.468204	 0.593016	 0.500000 
S151	 0.428920	 0.632300	 1.000000 
S152	 0.428920	 0.632300	 0.000000 
S153	 0.335974	 0.657204	 1.000000 
S154	 0.335974	 0.657204	 0.000000 
Mo155	 0.257407	 0.735772	 0.500000 
Mo156	 0.350353	 0.710867	 0.500000 
S157	 0.311069	 0.750151	 1.000000 
S158	 0.311069	 0.750151	 0.000000 
S159	 0.218123	 0.775056	 1.000000 
S160	 0.218123	 0.775056	 0.000000 
Mo161	 0.846662	 0.146516	 0.500000 
Mo162	 0.232502	 0.828718	 0.500000 
S163	 0.193218	 0.868002	 1.000000 
S164	 0.193218	 0.868002	 0.000000 
S165	 0.875420	 0.253841	 1.000000 
S166	 0.875420	 0.253841	 0.000000 
Mo167	 0.796852	 0.332409	 0.500000 
Mo168	 0.889799	 0.307504	 0.500000 
S169	 0.850515	 0.346788	 1.000000 
S170	 0.850515	 0.346788	 0.000000 
S171	 0.757569	 0.371692	 1.000000 
S172	 0.757569	 0.371692	 0.000000 
Mo173	 0.679001	 0.450260	 0.500000 
Mo174	 0.771948	 0.425355	 0.500000 
S175	 0.732664	 0.464639	 1.000000 
S176	 0.732664	 0.464639	 0.000000 
S177	 0.639718	 0.489544	 1.000000 
S178	 0.639718	 0.489544	 0.000000 
Mo179	 0.561150	 0.568111	 0.500000 
Mo180	 0.654096	 0.543206	 0.500000 
S181	 0.614813	 0.582490	 1.000000 
S182	 0.614813	 0.582490	 0.000000 
S183	 0.521866	 0.607395	 1.000000 
S184	 0.521866	 0.607395	 0.000000 
Mo185	 0.443299	 0.685962	 0.500000 
Mo186	 0.536245	 0.661057	 0.500000 
S187	 0.496962	 0.700341	 1.000000 
S188	 0.496962	 0.700341	 0.000000 
S189	 0.404015	 0.725246	 1.000000 
S190	 0.404015	 0.725246	 0.000000 
Mo191	 0.325448	 0.803813	 0.500000 
Mo192	 0.418394	 0.778908	 0.500000 
S193	 0.379110	 0.818192	 1.000000 
S194	 0.379110	 0.818192	 0.000000 
S195	 0.286164	 0.843097	 1.000000 
S196	 0.286164	 0.843097	 0.000000 
Mo197	 0.914704	 0.214558	 0.500000 
Mo198	 0.300543	 0.896760	 0.500000 
S199	 0.261259	 0.936043	 1.000000 
S200	 0.261259	 0.936043	 0.000000 
S201	 0.943461	 0.321883	 1.000000 
S202	 0.943461	 0.321883	 0.000000 
Mo203	 0.864894	 0.400450	 0.500000 
Mo204	 0.957840	 0.375545	 0.500000 
S205	 0.918556	 0.414829	 1.000000 
S206	 0.918556	 0.414829	 0.000000 
S207	 0.825610	 0.439734	 1.000000 
S208	 0.825610	 0.439734	 0.000000 
Mo209	 0.747043	 0.518301	 0.500000 
Mo210	 0.839989	 0.493396	 0.500000 
S211	 0.800705	 0.532680	 1.000000 
S212	 0.800705	 0.532680	 0.000000 
S213	 0.707759	 0.557585	 1.000000 
S214	 0.707759	 0.557585	 0.000000 
Mo215	 0.629192	 0.636152	 0.500000 
Mo216	 0.722138	 0.611248	 0.500000 
S217	 0.682854	 0.650531	 1.000000 
S218	 0.682854	 0.650531	 0.000000 
S219	 0.589908	 0.675436	 1.000000 
S220	 0.589908	 0.675436	 0.000000 
Mo221	 0.511340	 0.754004	 0.500000 
Mo222	 0.604287	 0.729099	 0.500000 
S223	 0.565003	 0.768382	 1.000000 
S224	 0.565003	 0.768382	 0.000000 
S225	 0.472057	 0.793287	 1.000000 
S226	 0.472057	 0.793287	 0.000000 
Mo227	 0.393489	 0.871855	 0.500000 
Mo228	 0.486436	 0.846950	 0.500000 
S229	 0.447152	 0.886234	 1.000000 
S230	 0.447152	 0.886234	 0.000000 
S231	 0.354206	 0.911138	 1.000000 
S232	 0.354206	 0.911138	 0.000000 
Mo233	 0.982745	 0.282599	 0.500000 
Mo234	 0.368584	 0.964801	 0.500000 
Mo235	 0.932935	 0.468492	 0.500000 
S236	 0.986598	 0.482870	 1.000000 
S237	 0.986598	 0.482870	 0.000000 
S238	 0.893652	 0.507775	 1.000000 
S239	 0.893652	 0.507775	 0.000000 
Mo240	 0.815084	 0.586343	 0.500000 
Mo241	 0.908030	 0.561438	 0.500000 
S242	 0.868747	 0.600722	 1.000000 
S243	 0.868747	 0.600722	 0.000000 
S244	 0.775800	 0.625626	 1.000000 
S245	 0.775800	 0.625626	 0.000000 
Mo246	 0.697233	 0.704194	 0.500000 
Mo247	 0.790179	 0.679289	 0.500000 
S248	 0.750896	 0.718573	 1.000000 
S249	 0.750896	 0.718573	 0.000000 
S250	 0.657949	 0.743478	 1.000000 
S251	 0.657949	 0.743478	 0.000000 
Mo252	 0.579382	 0.822045	 0.500000 
Mo253	 0.672328	 0.797140	 0.500000 
S254	 0.633044	 0.836424	 1.000000 
S255	 0.633044	 0.836424	 0.000000 
S256	 0.540098	 0.861329	 1.000000 
S257	 0.540098	 0.861329	 0.000000 
Mo258	 0.461531	 0.939896	 0.500000 
Mo259	 0.554477	 0.914991	 0.500000 
S260	 0.515193	 0.954275	 1.000000 
S261	 0.515193	 0.954275	 0.000000 
S262	 0.422247	 0.979180	 1.000000 
S263	 0.422247	 0.979180	 0.000000 
S264	 0.961693	 0.575817	 1.000000 
S265	 0.961693	 0.575817	 0.000000 
Mo266	 0.883125	 0.654384	 0.500000 
Mo267	 0.976072	 0.629479	 0.500000 
S268	 0.936788	 0.668763	 1.000000 
S269	 0.936788	 0.668763	 0.000000 
S270	 0.843842	 0.693668	 1.000000 
S271	 0.843842	 0.693668	 0.000000 
Mo272	 0.765274	 0.772235	 0.500000 
Mo273	 0.858221	 0.747330	 0.500000 
S274	 0.818937	 0.786614	 1.000000 
S275	 0.818937	 0.786614	 0.000000 
S276	 0.725991	 0.811519	 1.000000 
S277	 0.725991	 0.811519	 0.000000 
Mo278	 0.647423	 0.890086	 0.500000 
Mo279	 0.740369	 0.865181	 0.500000 
S280	 0.701086	 0.904465	 1.000000 
S281	 0.701086	 0.904465	 0.000000 
S282	 0.608140	 0.929370	 1.000000 
S283	 0.608140	 0.929370	 0.000000 
Mo284	 0.622518	 0.983033	 0.500000 
Mo285	 0.951167	 0.722425	 0.500000 
Mo286	 0.363699	 0.017107	 0.500000 
S287	 0.324416	 0.056390	 1.000000 
S288	 0.324416	 0.056390	 0.000000 
S289	 0.911883	 0.761709	 1.000000 
S290	 0.911883	 0.761709	 0.000000 
Mo291	 0.833316	 0.840277	 0.500000 
Mo292	 0.245848	 0.134958	 0.500000 
S293	 0.206564	 0.174242	 1.000000 
S294	 0.206564	 0.174242	 0.000000 
S295	 0.794032	 0.879560	 1.000000 
S296	 0.794032	 0.879560	 0.000000 
Mo297	 0.715465	 0.958128	 0.500000 
Mo298	 0.127997	 0.252809	 0.500000 
S299	 0.088713	 0.292093	 1.000000 
S300	 0.088713	 0.292093	 0.000000 
S301	 0.676181	 0.997411	 1.000000 
S302	 0.676181	 0.997411	 0.000000 
Mo303	 0.010146	 0.370660	 0.500000 
#                 ---end-of-data-block---
