data_Single Layer of MoS2nx 10 ny 6 nz 1
_cell_length_a               32.423991
_cell_length_b               32.423991
_cell_length_c               3.080000
_cell_angle_alpha          90.000000
_cell_angle_beta           90.000000
_cell_angle_gamma          90.000000
_symmetry_cell_setting          Triclinic
_symmetry_space_group_name_H-M 'P 1' 
loop_
_atom_site_label
_atom_site_fract_x
_atom_site_fract_y
_atom_site_fract_z
S1	 0.792504	 0.017364	 1.000000 
S2	 0.792504	 0.017364	 0.000000 
Mo3	 0.685179	 0.046122	 0.500000 
Mo4	 0.778125	 0.071027	 0.500000 
S5	 0.724463	 0.085405	 1.000000 
S6	 0.724463	 0.085405	 0.000000 
S7	 0.631517	 0.060500	 1.000000 
S8	 0.631517	 0.060500	 0.000000 
Mo9	 0.524192	 0.089258	 0.500000 
Mo10	 0.617138	 0.114163	 0.500000 
S11	 0.563475	 0.128542	 1.000000 
S12	 0.563475	 0.128542	 0.000000 
S13	 0.470529	 0.103637	 1.000000 
S14	 0.470529	 0.103637	 0.000000 
Mo15	 0.363204	 0.132395	 0.500000 
Mo16	 0.456150	 0.157300	 0.500000 
S17	 0.402488	 0.171678	 1.000000 
S18	 0.402488	 0.171678	 0.000000 
S19	 0.309541	 0.146774	 1.000000 
S20	 0.309541	 0.146774	 0.000000 
Mo21	 0.202216	 0.175531	 0.500000 
Mo22	 0.295162	 0.200436	 0.500000 
S23	 0.241500	 0.214815	 1.000000 
S24	 0.241500	 0.214815	 0.000000 
S25	 0.148554	 0.189910	 1.000000 
S26	 0.148554	 0.189910	 0.000000 
Mo27	 0.041229	 0.218668	 0.500000 
Mo28	 0.134175	 0.243573	 0.500000 
S29	 0.080512	 0.257951	 1.000000 
S30	 0.080512	 0.257951	 0.000000 
Mo31	 0.846167	 0.002985	 0.500000 
S32	 0.885451	 0.042269	 1.000000 
S33	 0.885451	 0.042269	 0.000000 
S34	 0.817409	 0.110310	 1.000000 
S35	 0.817409	 0.110310	 0.000000 
Mo36	 0.710084	 0.139068	 0.500000 
Mo37	 0.803030	 0.163973	 0.500000 
S38	 0.749368	 0.178352	 1.000000 
S39	 0.749368	 0.178352	 0.000000 
S40	 0.656421	 0.153447	 1.000000 
S41	 0.656421	 0.153447	 0.000000 
Mo42	 0.549096	 0.182204	 0.500000 
Mo43	 0.642043	 0.207109	 0.500000 
S44	 0.588380	 0.221488	 1.000000 
S45	 0.588380	 0.221488	 0.000000 
S46	 0.495434	 0.196583	 1.000000 
S47	 0.495434	 0.196583	 0.000000 
Mo48	 0.388109	 0.225341	 0.500000 
Mo49	 0.481055	 0.250246	 0.500000 
S50	 0.427392	 0.264625	 1.000000 
S51	 0.427392	 0.264625	 0.000000 
S52	 0.334446	 0.239720	 1.000000 
S53	 0.334446	 0.239720	 0.000000 
Mo54	 0.227121	 0.268477	 0.500000 
Mo55	 0.320067	 0.293382	 0.500000 
S56	 0.266405	 0.307761	 1.000000 
S57	 0.266405	 0.307761	 0.000000 
S58	 0.173459	 0.282856	 1.000000 
S59	 0.173459	 0.282856	 0.000000 
Mo60	 0.066133	 0.311614	 0.500000 
Mo61	 0.159080	 0.336519	 0.500000 
S62	 0.105417	 0.350898	 1.000000 
S63	 0.105417	 0.350898	 0.000000 
S64	 0.012471	 0.325993	 1.000000 
S65	 0.012471	 0.325993	 0.000000 
Mo66	 0.871072	 0.095931	 0.500000 
S67	 0.910355	 0.135215	 1.000000 
S68	 0.910355	 0.135215	 0.000000 
S69	 0.842314	 0.203257	 1.000000 
S70	 0.842314	 0.203257	 0.000000 
Mo71	 0.734989	 0.232014	 0.500000 
Mo72	 0.827935	 0.256919	 0.500000 
S73	 0.774273	 0.271298	 1.000000 
S74	 0.774273	 0.271298	 0.000000 
S75	 0.681326	 0.246393	 1.000000 
S76	 0.681326	 0.246393	 0.000000 
Mo77	 0.574001	 0.275151	 0.500000 
Mo78	 0.666948	 0.300056	 0.500000 
S79	 0.613285	 0.314434	 1.000000 
S80	 0.613285	 0.314434	 0.000000 
S81	 0.520339	 0.289530	 1.000000 
S82	 0.520339	 0.289530	 0.000000 
Mo83	 0.413014	 0.318287	 0.500000 
Mo84	 0.505960	 0.343192	 0.500000 
S85	 0.452297	 0.357571	 1.000000 
S86	 0.452297	 0.357571	 0.000000 
S87	 0.359351	 0.332666	 1.000000 
S88	 0.359351	 0.332666	 0.000000 
Mo89	 0.252026	 0.361424	 0.500000 
Mo90	 0.344972	 0.386329	 0.500000 
S91	 0.291310	 0.400707	 1.000000 
S92	 0.291310	 0.400707	 0.000000 
S93	 0.198363	 0.375803	 1.000000 
S94	 0.198363	 0.375803	 0.000000 
Mo95	 0.091038	 0.404560	 0.500000 
Mo96	 0.183985	 0.429465	 0.500000 
S97	 0.130322	 0.443844	 1.000000 
S98	 0.130322	 0.443844	 0.000000 
S99	 0.037376	 0.418939	 1.000000 
S100	 0.037376	 0.418939	 0.000000 
Mo101	 0.895977	 0.188878	 0.500000 
Mo102	 0.022997	 0.472602	 0.500000 
S103	 0.935260	 0.228161	 1.000000 
S104	 0.935260	 0.228161	 0.000000 
S105	 0.867219	 0.296203	 1.000000 
S106	 0.867219	 0.296203	 0.000000 
Mo107	 0.759894	 0.324960	 0.500000 
Mo108	 0.852840	 0.349865	 0.500000 
S109	 0.799177	 0.364244	 1.000000 
S110	 0.799177	 0.364244	 0.000000 
S111	 0.706231	 0.339339	 1.000000 
S112	 0.706231	 0.339339	 0.000000 
Mo113	 0.598906	 0.368097	 0.500000 
Mo114	 0.691852	 0.393002	 0.500000 
S115	 0.638190	 0.407381	 1.000000 
S116	 0.638190	 0.407381	 0.000000 
S117	 0.545244	 0.382476	 1.000000 
S118	 0.545244	 0.382476	 0.000000 
Mo119	 0.437919	 0.411233	 0.500000 
Mo120	 0.530865	 0.436138	 0.500000 
S121	 0.477202	 0.450517	 1.000000 
S122	 0.477202	 0.450517	 0.000000 
S123	 0.384256	 0.425612	 1.000000 
S124	 0.384256	 0.425612	 0.000000 
Mo125	 0.276931	 0.454370	 0.500000 
Mo126	 0.369877	 0.479275	 0.500000 
S127	 0.316215	 0.493654	 1.000000 
S128	 0.316215	 0.493654	 0.000000 
S129	 0.223268	 0.468749	 1.000000 
S130	 0.223268	 0.468749	 0.000000 
Mo131	 0.115943	 0.497506	 0.500000 
Mo132	 0.208889	 0.522411	 0.500000 
S133	 0.155227	 0.536790	 1.000000 
S134	 0.155227	 0.536790	 0.000000 
S135	 0.062281	 0.511885	 1.000000 
S136	 0.062281	 0.511885	 0.000000 
Mo137	 0.920881	 0.281824	 0.500000 
Mo138	 0.047902	 0.565548	 0.500000 
S139	 0.960165	 0.321108	 1.000000 
S140	 0.960165	 0.321108	 0.000000 
S141	 0.892124	 0.389149	 1.000000 
S142	 0.892124	 0.389149	 0.000000 
Mo143	 0.784799	 0.417907	 0.500000 
Mo144	 0.877745	 0.442812	 0.500000 
S145	 0.824082	 0.457190	 1.000000 
S146	 0.824082	 0.457190	 0.000000 
S147	 0.731136	 0.432286	 1.000000 
S148	 0.731136	 0.432286	 0.000000 
Mo149	 0.623811	 0.461043	 0.500000 
Mo150	 0.716757	 0.485948	 0.500000 
S151	 0.663095	 0.500327	 1.000000 
S152	 0.663095	 0.500327	 0.000000 
S153	 0.570148	 0.475422	 1.000000 
S154	 0.570148	 0.475422	 0.000000 
Mo155	 0.462823	 0.504180	 0.500000 
Mo156	 0.555770	 0.529085	 0.500000 
S157	 0.502107	 0.543463	 1.000000 
S158	 0.502107	 0.543463	 0.000000 
S159	 0.409161	 0.518559	 1.000000 
S160	 0.409161	 0.518559	 0.000000 
Mo161	 0.301836	 0.547316	 0.500000 
Mo162	 0.394782	 0.572221	 0.500000 
S163	 0.341119	 0.586600	 1.000000 
S164	 0.341119	 0.586600	 0.000000 
S165	 0.248173	 0.561695	 1.000000 
S166	 0.248173	 0.561695	 0.000000 
Mo167	 0.140848	 0.590453	 0.500000 
Mo168	 0.233794	 0.615358	 0.500000 
S169	 0.180132	 0.629736	 1.000000 
S170	 0.180132	 0.629736	 0.000000 
S171	 0.087186	 0.604832	 1.000000 
S172	 0.087186	 0.604832	 0.000000 
Mo173	 0.945786	 0.374770	 0.500000 
Mo174	 0.072807	 0.658494	 0.500000 
S175	 0.985070	 0.414054	 1.000000 
S176	 0.985070	 0.414054	 0.000000 
S177	 0.917029	 0.482095	 1.000000 
S178	 0.917029	 0.482095	 0.000000 
Mo179	 0.809704	 0.510853	 0.500000 
Mo180	 0.902650	 0.535758	 0.500000 
S181	 0.848987	 0.550137	 1.000000 
S182	 0.848987	 0.550137	 0.000000 
S183	 0.756041	 0.525232	 1.000000 
S184	 0.756041	 0.525232	 0.000000 
Mo185	 0.648716	 0.553989	 0.500000 
Mo186	 0.741662	 0.578894	 0.500000 
S187	 0.688000	 0.593273	 1.000000 
S188	 0.688000	 0.593273	 0.000000 
S189	 0.595053	 0.568368	 1.000000 
S190	 0.595053	 0.568368	 0.000000 
Mo191	 0.487728	 0.597126	 0.500000 
Mo192	 0.580675	 0.622031	 0.500000 
S193	 0.527012	 0.636410	 1.000000 
S194	 0.527012	 0.636410	 0.000000 
S195	 0.434066	 0.611505	 1.000000 
S196	 0.434066	 0.611505	 0.000000 
Mo197	 0.326741	 0.640262	 0.500000 
Mo198	 0.419687	 0.665167	 0.500000 
S199	 0.366024	 0.679546	 1.000000 
S200	 0.366024	 0.679546	 0.000000 
S201	 0.273078	 0.654641	 1.000000 
S202	 0.273078	 0.654641	 0.000000 
Mo203	 0.165753	 0.683399	 0.500000 
Mo204	 0.258699	 0.708304	 0.500000 
S205	 0.205037	 0.722683	 1.000000 
S206	 0.205037	 0.722683	 0.000000 
S207	 0.112090	 0.697778	 1.000000 
S208	 0.112090	 0.697778	 0.000000 
Mo209	 0.970691	 0.467716	 0.500000 
Mo210	 0.097712	 0.751440	 0.500000 
S211	 0.941933	 0.575042	 1.000000 
S212	 0.941933	 0.575042	 0.000000 
Mo213	 0.834608	 0.603799	 0.500000 
Mo214	 0.927555	 0.628704	 0.500000 
S215	 0.873892	 0.643083	 1.000000 
S216	 0.873892	 0.643083	 0.000000 
S217	 0.780946	 0.618178	 1.000000 
S218	 0.780946	 0.618178	 0.000000 
Mo219	 0.673621	 0.646936	 0.500000 
Mo220	 0.766567	 0.671841	 0.500000 
S221	 0.712904	 0.686219	 1.000000 
S222	 0.712904	 0.686219	 0.000000 
S223	 0.619958	 0.661315	 1.000000 
S224	 0.619958	 0.661315	 0.000000 
Mo225	 0.512633	 0.690072	 0.500000 
Mo226	 0.605579	 0.714977	 0.500000 
S227	 0.551917	 0.729356	 1.000000 
S228	 0.551917	 0.729356	 0.000000 
S229	 0.458971	 0.704451	 1.000000 
S230	 0.458971	 0.704451	 0.000000 
Mo231	 0.351645	 0.733209	 0.500000 
Mo232	 0.444592	 0.758114	 0.500000 
S233	 0.390929	 0.772492	 1.000000 
S234	 0.390929	 0.772492	 0.000000 
S235	 0.297983	 0.747588	 1.000000 
S236	 0.297983	 0.747588	 0.000000 
Mo237	 0.190658	 0.776345	 0.500000 
Mo238	 0.283604	 0.801250	 0.500000 
S239	 0.229942	 0.815629	 1.000000 
S240	 0.229942	 0.815629	 0.000000 
S241	 0.136995	 0.790724	 1.000000 
S242	 0.136995	 0.790724	 0.000000 
Mo243	 0.995596	 0.560663	 0.500000 
Mo244	 0.122616	 0.844387	 0.500000 
S245	 0.966838	 0.667988	 1.000000 
S246	 0.966838	 0.667988	 0.000000 
Mo247	 0.859513	 0.696745	 0.500000 
Mo248	 0.952460	 0.721650	 0.500000 
S249	 0.898797	 0.736029	 1.000000 
S250	 0.898797	 0.736029	 0.000000 
S251	 0.805851	 0.711124	 1.000000 
S252	 0.805851	 0.711124	 0.000000 
Mo253	 0.698526	 0.739882	 0.500000 
Mo254	 0.791472	 0.764787	 0.500000 
S255	 0.737809	 0.779166	 1.000000 
S256	 0.737809	 0.779166	 0.000000 
S257	 0.644863	 0.754261	 1.000000 
S258	 0.644863	 0.754261	 0.000000 
Mo259	 0.537538	 0.783018	 0.500000 
Mo260	 0.630484	 0.807923	 0.500000 
S261	 0.576822	 0.822302	 1.000000 
S262	 0.576822	 0.822302	 0.000000 
S263	 0.483875	 0.797397	 1.000000 
S264	 0.483875	 0.797397	 0.000000 
Mo265	 0.376550	 0.826155	 0.500000 
Mo266	 0.469497	 0.851060	 0.500000 
S267	 0.415834	 0.865439	 1.000000 
S268	 0.415834	 0.865439	 0.000000 
S269	 0.322888	 0.840534	 1.000000 
S270	 0.322888	 0.840534	 0.000000 
Mo271	 0.215563	 0.869291	 0.500000 
Mo272	 0.308509	 0.894196	 0.500000 
S273	 0.254846	 0.908575	 1.000000 
S274	 0.254846	 0.908575	 0.000000 
S275	 0.161900	 0.883670	 1.000000 
S276	 0.161900	 0.883670	 0.000000 
Mo277	 0.147521	 0.937333	 0.500000 
S278	 0.991743	 0.760934	 1.000000 
S279	 0.991743	 0.760934	 0.000000 
Mo280	 0.884418	 0.789692	 0.500000 
Mo281	 0.977364	 0.814597	 0.500000 
S282	 0.923702	 0.828975	 1.000000 
S283	 0.923702	 0.828975	 0.000000 
S284	 0.830756	 0.804071	 1.000000 
S285	 0.830756	 0.804071	 0.000000 
Mo286	 0.723431	 0.832828	 0.500000 
Mo287	 0.816377	 0.857733	 0.500000 
S288	 0.762714	 0.872112	 1.000000 
S289	 0.762714	 0.872112	 0.000000 
S290	 0.669768	 0.847207	 1.000000 
S291	 0.669768	 0.847207	 0.000000 
Mo292	 0.562443	 0.875965	 0.500000 
Mo293	 0.655389	 0.900870	 0.500000 
S294	 0.601727	 0.915248	 1.000000 
S295	 0.601727	 0.915248	 0.000000 
S296	 0.508780	 0.890344	 1.000000 
S297	 0.508780	 0.890344	 0.000000 
Mo298	 0.401455	 0.919101	 0.500000 
Mo299	 0.494401	 0.944006	 0.500000 
S300	 0.440739	 0.958385	 1.000000 
S301	 0.440739	 0.958385	 0.000000 
S302	 0.347793	 0.933480	 1.000000 
S303	 0.347793	 0.933480	 0.000000 
Mo304	 0.240468	 0.962238	 0.500000 
Mo305	 0.333414	 0.987143	 0.500000 
S306	 0.186805	 0.976617	 1.000000 
S307	 0.186805	 0.976617	 0.000000 
Mo308	 0.909323	 0.882638	 0.500000 
S309	 0.855660	 0.897017	 1.000000 
S310	 0.855660	 0.897017	 0.000000 
Mo311	 0.748335	 0.925774	 0.500000 
Mo312	 0.592233	 0.021217	 0.500000 
S313	 0.538570	 0.035596	 1.000000 
S314	 0.538570	 0.035596	 0.000000 
S315	 0.694673	 0.940153	 1.000000 
S316	 0.694673	 0.940153	 0.000000 
Mo317	 0.587348	 0.968911	 0.500000 
Mo318	 0.431245	 0.064353	 0.500000 
S319	 0.377583	 0.078732	 1.000000 
S320	 0.377583	 0.078732	 0.000000 
S321	 0.533685	 0.983290	 1.000000 
S322	 0.533685	 0.983290	 0.000000 
Mo323	 0.270258	 0.107490	 0.500000 
S324	 0.216595	 0.121869	 1.000000 
S325	 0.216595	 0.121869	 0.000000 
Mo326	 0.109270	 0.150626	 0.500000 
S327	 0.055607	 0.165005	 1.000000 
S328	 0.055607	 0.165005	 0.000000 
#                 ---end-of-data-block---
