data_Single Layer of MoS2nx 10 ny 6 nz 1
_cell_length_a               32.423991
_cell_length_b               32.423991
_cell_length_c               3.080000
_cell_angle_alpha          90.000000
_cell_angle_beta           90.000000
_cell_angle_gamma          90.000000
_symmetry_cell_setting          Triclinic
_symmetry_space_group_name_H-M 'P 1' 
loop_
_atom_site_label
_atom_site_fract_x
_atom_site_fract_y
_atom_site_fract_z
Mo1	 0.751368	 0.018606	 0.500000 
Mo2	 0.844314	 0.043511	 0.500000 
S3	 0.790652	 0.057890	 1.000000 
S4	 0.790652	 0.057890	 0.000000 
S5	 0.697705	 0.032985	 1.000000 
S6	 0.697705	 0.032985	 0.000000 
Mo7	 0.590380	 0.061743	 0.500000 
Mo8	 0.683327	 0.086647	 0.500000 
S9	 0.629664	 0.101026	 1.000000 
S10	 0.629664	 0.101026	 0.000000 
S11	 0.536718	 0.076121	 1.000000 
S12	 0.536718	 0.076121	 0.000000 
Mo13	 0.429393	 0.104879	 0.500000 
Mo14	 0.522339	 0.129784	 0.500000 
S15	 0.468676	 0.144163	 1.000000 
S16	 0.468676	 0.144163	 0.000000 
S17	 0.375730	 0.119258	 1.000000 
S18	 0.375730	 0.119258	 0.000000 
Mo19	 0.268405	 0.148016	 0.500000 
Mo20	 0.361351	 0.172920	 0.500000 
S21	 0.307689	 0.187299	 1.000000 
S22	 0.307689	 0.187299	 0.000000 
S23	 0.214743	 0.162394	 1.000000 
S24	 0.214743	 0.162394	 0.000000 
Mo25	 0.107417	 0.191152	 0.500000 
Mo26	 0.200364	 0.216057	 0.500000 
S27	 0.146701	 0.230436	 1.000000 
S28	 0.146701	 0.230436	 0.000000 
S29	 0.053755	 0.205531	 1.000000 
S30	 0.053755	 0.205531	 0.000000 
Mo31	 0.039376	 0.259193	 0.500000 
S32	 0.883598	 0.082795	 1.000000 
S33	 0.883598	 0.082795	 0.000000 
Mo34	 0.776273	 0.111552	 0.500000 
Mo35	 0.869219	 0.136457	 0.500000 
S36	 0.815557	 0.150836	 1.000000 
S37	 0.815557	 0.150836	 0.000000 
S38	 0.722610	 0.125931	 1.000000 
S39	 0.722610	 0.125931	 0.000000 
Mo40	 0.615285	 0.154689	 0.500000 
Mo41	 0.708232	 0.179594	 0.500000 
S42	 0.654569	 0.193973	 1.000000 
S43	 0.654569	 0.193973	 0.000000 
S44	 0.561623	 0.169068	 1.000000 
S45	 0.561623	 0.169068	 0.000000 
Mo46	 0.454298	 0.197825	 0.500000 
Mo47	 0.547244	 0.222730	 0.500000 
S48	 0.493581	 0.237109	 1.000000 
S49	 0.493581	 0.237109	 0.000000 
S50	 0.400635	 0.212204	 1.000000 
S51	 0.400635	 0.212204	 0.000000 
Mo52	 0.293310	 0.240962	 0.500000 
Mo53	 0.386256	 0.265867	 0.500000 
S54	 0.332594	 0.280246	 1.000000 
S55	 0.332594	 0.280246	 0.000000 
S56	 0.239647	 0.255341	 1.000000 
S57	 0.239647	 0.255341	 0.000000 
Mo58	 0.132322	 0.284098	 0.500000 
Mo59	 0.225269	 0.309003	 0.500000 
S60	 0.171606	 0.323382	 1.000000 
S61	 0.171606	 0.323382	 0.000000 
S62	 0.078660	 0.298477	 1.000000 
S63	 0.078660	 0.298477	 0.000000 
Mo64	 0.064281	 0.352140	 0.500000 
S65	 0.010618	 0.366519	 1.000000 
S66	 0.010618	 0.366519	 0.000000 
S67	 0.908503	 0.175741	 1.000000 
S68	 0.908503	 0.175741	 0.000000 
Mo69	 0.801178	 0.204499	 0.500000 
Mo70	 0.894124	 0.229403	 0.500000 
S71	 0.840461	 0.243782	 1.000000 
S72	 0.840461	 0.243782	 0.000000 
S73	 0.747515	 0.218877	 1.000000 
S74	 0.747515	 0.218877	 0.000000 
Mo75	 0.640190	 0.247635	 0.500000 
Mo76	 0.733136	 0.272540	 0.500000 
S77	 0.679474	 0.286919	 1.000000 
S78	 0.679474	 0.286919	 0.000000 
S79	 0.586528	 0.262014	 1.000000 
S80	 0.586528	 0.262014	 0.000000 
Mo81	 0.479202	 0.290772	 0.500000 
Mo82	 0.572149	 0.315676	 0.500000 
S83	 0.518486	 0.330055	 1.000000 
S84	 0.518486	 0.330055	 0.000000 
S85	 0.425540	 0.305150	 1.000000 
S86	 0.425540	 0.305150	 0.000000 
Mo87	 0.318215	 0.333908	 0.500000 
Mo88	 0.411161	 0.358813	 0.500000 
S89	 0.357499	 0.373192	 1.000000 
S90	 0.357499	 0.373192	 0.000000 
S91	 0.264552	 0.348287	 1.000000 
S92	 0.264552	 0.348287	 0.000000 
Mo93	 0.157227	 0.377045	 0.500000 
Mo94	 0.250173	 0.401949	 0.500000 
S95	 0.196511	 0.416328	 1.000000 
S96	 0.196511	 0.416328	 0.000000 
S97	 0.103565	 0.391423	 1.000000 
S98	 0.103565	 0.391423	 0.000000 
Mo99	 0.089186	 0.445086	 0.500000 
S100	 0.035523	 0.459465	 1.000000 
S101	 0.035523	 0.459465	 0.000000 
S102	 0.933408	 0.268687	 1.000000 
S103	 0.933408	 0.268687	 0.000000 
Mo104	 0.826083	 0.297445	 0.500000 
Mo105	 0.919029	 0.322350	 0.500000 
S106	 0.865366	 0.336729	 1.000000 
S107	 0.865366	 0.336729	 0.000000 
S108	 0.772420	 0.311824	 1.000000 
S109	 0.772420	 0.311824	 0.000000 
Mo110	 0.665095	 0.340581	 0.500000 
Mo111	 0.758041	 0.365486	 0.500000 
S112	 0.704379	 0.379865	 1.000000 
S113	 0.704379	 0.379865	 0.000000 
S114	 0.611432	 0.354960	 1.000000 
S115	 0.611432	 0.354960	 0.000000 
Mo116	 0.504107	 0.383718	 0.500000 
Mo117	 0.597054	 0.408623	 0.500000 
S118	 0.543391	 0.423002	 1.000000 
S119	 0.543391	 0.423002	 0.000000 
S120	 0.450445	 0.398097	 1.000000 
S121	 0.450445	 0.398097	 0.000000 
Mo122	 0.343120	 0.426854	 0.500000 
Mo123	 0.436066	 0.451759	 0.500000 
S124	 0.382403	 0.466138	 1.000000 
S125	 0.382403	 0.466138	 0.000000 
S126	 0.289457	 0.441233	 1.000000 
S127	 0.289457	 0.441233	 0.000000 
Mo128	 0.182132	 0.469991	 0.500000 
Mo129	 0.275078	 0.494896	 0.500000 
S130	 0.221416	 0.509275	 1.000000 
S131	 0.221416	 0.509275	 0.000000 
S132	 0.128470	 0.484370	 1.000000 
S133	 0.128470	 0.484370	 0.000000 
Mo134	 0.021144	 0.513127	 0.500000 
Mo135	 0.114091	 0.538032	 0.500000 
S136	 0.060428	 0.552411	 1.000000 
S137	 0.060428	 0.552411	 0.000000 
S138	 0.958313	 0.361633	 1.000000 
S139	 0.958313	 0.361633	 0.000000 
Mo140	 0.850988	 0.390391	 0.500000 
Mo141	 0.943934	 0.415296	 0.500000 
S142	 0.890271	 0.429675	 1.000000 
S143	 0.890271	 0.429675	 0.000000 
S144	 0.797325	 0.404770	 1.000000 
S145	 0.797325	 0.404770	 0.000000 
Mo146	 0.690000	 0.433528	 0.500000 
Mo147	 0.782946	 0.458432	 0.500000 
S148	 0.729284	 0.472811	 1.000000 
S149	 0.729284	 0.472811	 0.000000 
S150	 0.636337	 0.447906	 1.000000 
S151	 0.636337	 0.447906	 0.000000 
Mo152	 0.529012	 0.476664	 0.500000 
Mo153	 0.621959	 0.501569	 0.500000 
S154	 0.568296	 0.515948	 1.000000 
S155	 0.568296	 0.515948	 0.000000 
S156	 0.475350	 0.491043	 1.000000 
S157	 0.475350	 0.491043	 0.000000 
Mo158	 0.368025	 0.519801	 0.500000 
Mo159	 0.460971	 0.544705	 0.500000 
S160	 0.407308	 0.559084	 1.000000 
S161	 0.407308	 0.559084	 0.000000 
S162	 0.314362	 0.534179	 1.000000 
S163	 0.314362	 0.534179	 0.000000 
Mo164	 0.207037	 0.562937	 0.500000 
Mo165	 0.299983	 0.587842	 0.500000 
S166	 0.246321	 0.602221	 1.000000 
S167	 0.246321	 0.602221	 0.000000 
S168	 0.153374	 0.577316	 1.000000 
S169	 0.153374	 0.577316	 0.000000 
Mo170	 0.046049	 0.606074	 0.500000 
Mo171	 0.138996	 0.630979	 0.500000 
S172	 0.085333	 0.645357	 1.000000 
S173	 0.085333	 0.645357	 0.000000 
S174	 0.983217	 0.454580	 1.000000 
S175	 0.983217	 0.454580	 0.000000 
Mo176	 0.875892	 0.483337	 0.500000 
Mo177	 0.968839	 0.508242	 0.500000 
S178	 0.915176	 0.522621	 1.000000 
S179	 0.915176	 0.522621	 0.000000 
S180	 0.822230	 0.497716	 1.000000 
S181	 0.822230	 0.497716	 0.000000 
Mo182	 0.714905	 0.526474	 0.500000 
Mo183	 0.807851	 0.551379	 0.500000 
S184	 0.754188	 0.565758	 1.000000 
S185	 0.754188	 0.565758	 0.000000 
S186	 0.661242	 0.540853	 1.000000 
S187	 0.661242	 0.540853	 0.000000 
Mo188	 0.553917	 0.569610	 0.500000 
Mo189	 0.646863	 0.594515	 0.500000 
S190	 0.593201	 0.608894	 1.000000 
S191	 0.593201	 0.608894	 0.000000 
S192	 0.500255	 0.583989	 1.000000 
S193	 0.500255	 0.583989	 0.000000 
Mo194	 0.392929	 0.612747	 0.500000 
Mo195	 0.485876	 0.637652	 0.500000 
S196	 0.432213	 0.652031	 1.000000 
S197	 0.432213	 0.652031	 0.000000 
S198	 0.339267	 0.627126	 1.000000 
S199	 0.339267	 0.627126	 0.000000 
Mo200	 0.231942	 0.655883	 0.500000 
Mo201	 0.324888	 0.680788	 0.500000 
S202	 0.271226	 0.695167	 1.000000 
S203	 0.271226	 0.695167	 0.000000 
S204	 0.178279	 0.670262	 1.000000 
S205	 0.178279	 0.670262	 0.000000 
Mo206	 0.070954	 0.699020	 0.500000 
Mo207	 0.163900	 0.723925	 0.500000 
S208	 0.110238	 0.738304	 1.000000 
S209	 0.110238	 0.738304	 0.000000 
Mo210	 0.900797	 0.576284	 0.500000 
Mo211	 0.993744	 0.601188	 0.500000 
S212	 0.940081	 0.615567	 1.000000 
S213	 0.940081	 0.615567	 0.000000 
S214	 0.847135	 0.590662	 1.000000 
S215	 0.847135	 0.590662	 0.000000 
Mo216	 0.739810	 0.619420	 0.500000 
Mo217	 0.832756	 0.644325	 0.500000 
S218	 0.779093	 0.658704	 1.000000 
S219	 0.779093	 0.658704	 0.000000 
S220	 0.686147	 0.633799	 1.000000 
S221	 0.686147	 0.633799	 0.000000 
Mo222	 0.578822	 0.662557	 0.500000 
Mo223	 0.671768	 0.687462	 0.500000 
S224	 0.618106	 0.701840	 1.000000 
S225	 0.618106	 0.701840	 0.000000 
S226	 0.525159	 0.676935	 1.000000 
S227	 0.525159	 0.676935	 0.000000 
Mo228	 0.417834	 0.705693	 0.500000 
Mo229	 0.510781	 0.730598	 0.500000 
S230	 0.457118	 0.744977	 1.000000 
S231	 0.457118	 0.744977	 0.000000 
S232	 0.364172	 0.720072	 1.000000 
S233	 0.364172	 0.720072	 0.000000 
Mo234	 0.256847	 0.748830	 0.500000 
Mo235	 0.349793	 0.773735	 0.500000 
S236	 0.296130	 0.788113	 1.000000 
S237	 0.296130	 0.788113	 0.000000 
S238	 0.203184	 0.763208	 1.000000 
S239	 0.203184	 0.763208	 0.000000 
Mo240	 0.095859	 0.791966	 0.500000 
Mo241	 0.188805	 0.816871	 0.500000 
S242	 0.135143	 0.831250	 1.000000 
S243	 0.135143	 0.831250	 0.000000 
Mo244	 0.925702	 0.669230	 0.500000 
S245	 0.964986	 0.708514	 1.000000 
S246	 0.964986	 0.708514	 0.000000 
S247	 0.872040	 0.683609	 1.000000 
S248	 0.872040	 0.683609	 0.000000 
Mo249	 0.764715	 0.712366	 0.500000 
Mo250	 0.857661	 0.737271	 0.500000 
S251	 0.803998	 0.751650	 1.000000 
S252	 0.803998	 0.751650	 0.000000 
S253	 0.711052	 0.726745	 1.000000 
S254	 0.711052	 0.726745	 0.000000 
Mo255	 0.603727	 0.755503	 0.500000 
Mo256	 0.696673	 0.780408	 0.500000 
S257	 0.643011	 0.794787	 1.000000 
S258	 0.643011	 0.794787	 0.000000 
S259	 0.550064	 0.769882	 1.000000 
S260	 0.550064	 0.769882	 0.000000 
Mo261	 0.442739	 0.798639	 0.500000 
Mo262	 0.535685	 0.823544	 0.500000 
S263	 0.482023	 0.837923	 1.000000 
S264	 0.482023	 0.837923	 0.000000 
S265	 0.389077	 0.813018	 1.000000 
S266	 0.389077	 0.813018	 0.000000 
Mo267	 0.281752	 0.841776	 0.500000 
Mo268	 0.374698	 0.866681	 0.500000 
S269	 0.321035	 0.881060	 1.000000 
S270	 0.321035	 0.881060	 0.000000 
S271	 0.228089	 0.856155	 1.000000 
S272	 0.228089	 0.856155	 0.000000 
Mo273	 0.120764	 0.884912	 0.500000 
Mo274	 0.213710	 0.909817	 0.500000 
S275	 0.160048	 0.924196	 1.000000 
S276	 0.160048	 0.924196	 0.000000 
Mo277	 0.950607	 0.762176	 0.500000 
S278	 0.989891	 0.801460	 1.000000 
S279	 0.989891	 0.801460	 0.000000 
S280	 0.896944	 0.776555	 1.000000 
S281	 0.896944	 0.776555	 0.000000 
Mo282	 0.789619	 0.805313	 0.500000 
Mo283	 0.882566	 0.830218	 0.500000 
S284	 0.828903	 0.844596	 1.000000 
S285	 0.828903	 0.844596	 0.000000 
S286	 0.735957	 0.819691	 1.000000 
S287	 0.735957	 0.819691	 0.000000 
Mo288	 0.628632	 0.848449	 0.500000 
Mo289	 0.721578	 0.873354	 0.500000 
S290	 0.667915	 0.887733	 1.000000 
S291	 0.667915	 0.887733	 0.000000 
S292	 0.574969	 0.862828	 1.000000 
S293	 0.574969	 0.862828	 0.000000 
Mo294	 0.467644	 0.891586	 0.500000 
Mo295	 0.560590	 0.916491	 0.500000 
S296	 0.506928	 0.930869	 1.000000 
S297	 0.506928	 0.930869	 0.000000 
S298	 0.413982	 0.905964	 1.000000 
S299	 0.413982	 0.905964	 0.000000 
Mo300	 0.306656	 0.934722	 0.500000 
Mo301	 0.399603	 0.959627	 0.500000 
S302	 0.345940	 0.974006	 1.000000 
S303	 0.345940	 0.974006	 0.000000 
S304	 0.252994	 0.949101	 1.000000 
S305	 0.252994	 0.949101	 0.000000 
Mo306	 0.145669	 0.977859	 0.500000 
Mo307	 0.975512	 0.855122	 0.500000 
S308	 0.921849	 0.869501	 1.000000 
S309	 0.921849	 0.869501	 0.000000 
Mo310	 0.814524	 0.898259	 0.500000 
S311	 0.604759	 0.008080	 1.000000 
S312	 0.604759	 0.008080	 0.000000 
S313	 0.760862	 0.912638	 1.000000 
S314	 0.760862	 0.912638	 0.000000 
Mo315	 0.653537	 0.941395	 0.500000 
Mo316	 0.497434	 0.036838	 0.500000 
S317	 0.443772	 0.051217	 1.000000 
S318	 0.443772	 0.051217	 0.000000 
S319	 0.599874	 0.955774	 1.000000 
S320	 0.599874	 0.955774	 0.000000 
Mo321	 0.492549	 0.984532	 0.500000 
Mo322	 0.336446	 0.079974	 0.500000 
S323	 0.282784	 0.094353	 1.000000 
S324	 0.282784	 0.094353	 0.000000 
S325	 0.438886	 0.998911	 1.000000 
S326	 0.438886	 0.998911	 0.000000 
Mo327	 0.175459	 0.123111	 0.500000 
S328	 0.121796	 0.137490	 1.000000 
S329	 0.121796	 0.137490	 0.000000 
Mo330	 0.014471	 0.166247	 0.500000 
#                 ---end-of-data-block---
