data_Single Layer of MoS2nx 10 ny 6 nz 1
_cell_length_a               32.423991
_cell_length_b               32.423991
_cell_length_c               3.080000
_cell_angle_alpha          90.000000
_cell_angle_beta           90.000000
_cell_angle_gamma          90.000000
_symmetry_cell_setting          Triclinic
_symmetry_space_group_name_H-M 'P 1' 
loop_
_atom_site_label
_atom_site_fract_x
_atom_site_fract_y
_atom_site_fract_z
S1	 0.543714	 0.016648	 1.000000 
S2	 0.543714	 0.016648	 0.000000 
S3	 0.447489	 0.016648	 1.000000 
S4	 0.447489	 0.016648	 0.000000 
Mo5	 0.351264	 0.072204	 0.500000 
Mo6	 0.447489	 0.072204	 0.500000 
S7	 0.399377	 0.099982	 1.000000 
S8	 0.399377	 0.099982	 0.000000 
S9	 0.303152	 0.099982	 1.000000 
S10	 0.303152	 0.099982	 0.000000 
Mo11	 0.206927	 0.155537	 0.500000 
Mo12	 0.303152	 0.155537	 0.500000 
S13	 0.255039	 0.183315	 1.000000 
S14	 0.255039	 0.183315	 0.000000 
S15	 0.158814	 0.183315	 1.000000 
S16	 0.158814	 0.183315	 0.000000 
Mo17	 0.062589	 0.238871	 0.500000 
Mo18	 0.158814	 0.238871	 0.500000 
S19	 0.110701	 0.266648	 1.000000 
S20	 0.110701	 0.266648	 0.000000 
S21	 0.014476	 0.266648	 1.000000 
S22	 0.014476	 0.266648	 0.000000 
Mo23	 0.014476	 0.322204	 0.500000 
S24	 0.639939	 0.016648	 1.000000 
S25	 0.639939	 0.016648	 0.000000 
Mo26	 0.543714	 0.072204	 0.500000 
Mo27	 0.639939	 0.072204	 0.500000 
S28	 0.591827	 0.099982	 1.000000 
S29	 0.591827	 0.099982	 0.000000 
S30	 0.495602	 0.099982	 1.000000 
S31	 0.495602	 0.099982	 0.000000 
Mo32	 0.399377	 0.155537	 0.500000 
Mo33	 0.495602	 0.155537	 0.500000 
S34	 0.447489	 0.183315	 1.000000 
S35	 0.447489	 0.183315	 0.000000 
S36	 0.351264	 0.183315	 1.000000 
S37	 0.351264	 0.183315	 0.000000 
Mo38	 0.255039	 0.238871	 0.500000 
Mo39	 0.351264	 0.238871	 0.500000 
S40	 0.303152	 0.266648	 1.000000 
S41	 0.303152	 0.266648	 0.000000 
S42	 0.206927	 0.266648	 1.000000 
S43	 0.206927	 0.266648	 0.000000 
Mo44	 0.110701	 0.322204	 0.500000 
Mo45	 0.206927	 0.322204	 0.500000 
S46	 0.158814	 0.349982	 1.000000 
S47	 0.158814	 0.349982	 0.000000 
S48	 0.062589	 0.349982	 1.000000 
S49	 0.062589	 0.349982	 0.000000 
Mo50	 0.062589	 0.405537	 0.500000 
S51	 0.014476	 0.433315	 1.000000 
S52	 0.014476	 0.433315	 0.000000 
S53	 0.736164	 0.016648	 1.000000 
S54	 0.736164	 0.016648	 0.000000 
S55	 0.688052	 0.099982	 1.000000 
S56	 0.688052	 0.099982	 0.000000 
Mo57	 0.591827	 0.155537	 0.500000 
Mo58	 0.688052	 0.155537	 0.500000 
S59	 0.639939	 0.183315	 1.000000 
S60	 0.639939	 0.183315	 0.000000 
S61	 0.543714	 0.183315	 1.000000 
S62	 0.543714	 0.183315	 0.000000 
Mo63	 0.447489	 0.238871	 0.500000 
Mo64	 0.543714	 0.238871	 0.500000 
S65	 0.495602	 0.266648	 1.000000 
S66	 0.495602	 0.266648	 0.000000 
S67	 0.399377	 0.266648	 1.000000 
S68	 0.399377	 0.266648	 0.000000 
Mo69	 0.303152	 0.322204	 0.500000 
Mo70	 0.399377	 0.322204	 0.500000 
S71	 0.351264	 0.349982	 1.000000 
S72	 0.351264	 0.349982	 0.000000 
S73	 0.255039	 0.349982	 1.000000 
S74	 0.255039	 0.349982	 0.000000 
Mo75	 0.158814	 0.405537	 0.500000 
Mo76	 0.255039	 0.405537	 0.500000 
S77	 0.206927	 0.433315	 1.000000 
S78	 0.206927	 0.433315	 0.000000 
S79	 0.110701	 0.433315	 1.000000 
S80	 0.110701	 0.433315	 0.000000 
Mo81	 0.014476	 0.488871	 0.500000 
Mo82	 0.110701	 0.488871	 0.500000 
S83	 0.062589	 0.516648	 1.000000 
S84	 0.062589	 0.516648	 0.000000 
Mo85	 0.736164	 0.072204	 0.500000 
S86	 0.784277	 0.099982	 1.000000 
S87	 0.784277	 0.099982	 0.000000 
S88	 0.736164	 0.183315	 1.000000 
S89	 0.736164	 0.183315	 0.000000 
Mo90	 0.639939	 0.238871	 0.500000 
Mo91	 0.736164	 0.238871	 0.500000 
S92	 0.688052	 0.266648	 1.000000 
S93	 0.688052	 0.266648	 0.000000 
S94	 0.591827	 0.266648	 1.000000 
S95	 0.591827	 0.266648	 0.000000 
Mo96	 0.495602	 0.322204	 0.500000 
Mo97	 0.591827	 0.322204	 0.500000 
S98	 0.543714	 0.349982	 1.000000 
S99	 0.543714	 0.349982	 0.000000 
S100	 0.447489	 0.349982	 1.000000 
S101	 0.447489	 0.349982	 0.000000 
Mo102	 0.351264	 0.405537	 0.500000 
Mo103	 0.447489	 0.405537	 0.500000 
S104	 0.399377	 0.433315	 1.000000 
S105	 0.399377	 0.433315	 0.000000 
S106	 0.303152	 0.433315	 1.000000 
S107	 0.303152	 0.433315	 0.000000 
Mo108	 0.206927	 0.488871	 0.500000 
Mo109	 0.303152	 0.488871	 0.500000 
S110	 0.255039	 0.516648	 1.000000 
S111	 0.255039	 0.516648	 0.000000 
S112	 0.158814	 0.516648	 1.000000 
S113	 0.158814	 0.516648	 0.000000 
Mo114	 0.062589	 0.572204	 0.500000 
Mo115	 0.158814	 0.572204	 0.500000 
S116	 0.110701	 0.599982	 1.000000 
S117	 0.110701	 0.599982	 0.000000 
S118	 0.014476	 0.599982	 1.000000 
S119	 0.014476	 0.599982	 0.000000 
Mo120	 0.784277	 0.155537	 0.500000 
Mo121	 0.014476	 0.655537	 0.500000 
S122	 0.832389	 0.183315	 1.000000 
S123	 0.832389	 0.183315	 0.000000 
S124	 0.784277	 0.266648	 1.000000 
S125	 0.784277	 0.266648	 0.000000 
Mo126	 0.688052	 0.322204	 0.500000 
Mo127	 0.784277	 0.322204	 0.500000 
S128	 0.736164	 0.349982	 1.000000 
S129	 0.736164	 0.349982	 0.000000 
S130	 0.639939	 0.349982	 1.000000 
S131	 0.639939	 0.349982	 0.000000 
Mo132	 0.543714	 0.405537	 0.500000 
Mo133	 0.639939	 0.405537	 0.500000 
S134	 0.591827	 0.433315	 1.000000 
S135	 0.591827	 0.433315	 0.000000 
S136	 0.495602	 0.433315	 1.000000 
S137	 0.495602	 0.433315	 0.000000 
Mo138	 0.399377	 0.488871	 0.500000 
Mo139	 0.495602	 0.488871	 0.500000 
S140	 0.447489	 0.516648	 1.000000 
S141	 0.447489	 0.516648	 0.000000 
S142	 0.351264	 0.516648	 1.000000 
S143	 0.351264	 0.516648	 0.000000 
Mo144	 0.255039	 0.572204	 0.500000 
Mo145	 0.351264	 0.572204	 0.500000 
S146	 0.303152	 0.599982	 1.000000 
S147	 0.303152	 0.599982	 0.000000 
S148	 0.206927	 0.599982	 1.000000 
S149	 0.206927	 0.599982	 0.000000 
Mo150	 0.110701	 0.655537	 0.500000 
Mo151	 0.206927	 0.655537	 0.500000 
S152	 0.158814	 0.683315	 1.000000 
S153	 0.158814	 0.683315	 0.000000 
S154	 0.062589	 0.683315	 1.000000 
S155	 0.062589	 0.683315	 0.000000 
Mo156	 0.832389	 0.238871	 0.500000 
Mo157	 0.062589	 0.738871	 0.500000 
S158	 0.880502	 0.266648	 1.000000 
S159	 0.880502	 0.266648	 0.000000 
S160	 0.832389	 0.349982	 1.000000 
S161	 0.832389	 0.349982	 0.000000 
Mo162	 0.736164	 0.405537	 0.500000 
Mo163	 0.832389	 0.405537	 0.500000 
S164	 0.784277	 0.433315	 1.000000 
S165	 0.784277	 0.433315	 0.000000 
S166	 0.688052	 0.433315	 1.000000 
S167	 0.688052	 0.433315	 0.000000 
Mo168	 0.591827	 0.488871	 0.500000 
Mo169	 0.688052	 0.488871	 0.500000 
S170	 0.639939	 0.516648	 1.000000 
S171	 0.639939	 0.516648	 0.000000 
S172	 0.543714	 0.516648	 1.000000 
S173	 0.543714	 0.516648	 0.000000 
Mo174	 0.447489	 0.572204	 0.500000 
Mo175	 0.543714	 0.572204	 0.500000 
S176	 0.495602	 0.599982	 1.000000 
S177	 0.495602	 0.599982	 0.000000 
S178	 0.399377	 0.599982	 1.000000 
S179	 0.399377	 0.599982	 0.000000 
Mo180	 0.303152	 0.655537	 0.500000 
Mo181	 0.399377	 0.655537	 0.500000 
S182	 0.351264	 0.683315	 1.000000 
S183	 0.351264	 0.683315	 0.000000 
S184	 0.255039	 0.683315	 1.000000 
S185	 0.255039	 0.683315	 0.000000 
Mo186	 0.158814	 0.738871	 0.500000 
Mo187	 0.255039	 0.738871	 0.500000 
S188	 0.206927	 0.766648	 1.000000 
S189	 0.206927	 0.766648	 0.000000 
S190	 0.110701	 0.766648	 1.000000 
S191	 0.110701	 0.766648	 0.000000 
Mo192	 0.880502	 0.322204	 0.500000 
Mo193	 0.110701	 0.822204	 0.500000 
S194	 0.928614	 0.349982	 1.000000 
S195	 0.928614	 0.349982	 0.000000 
S196	 0.880502	 0.433315	 1.000000 
S197	 0.880502	 0.433315	 0.000000 
Mo198	 0.784277	 0.488871	 0.500000 
Mo199	 0.880502	 0.488871	 0.500000 
S200	 0.832389	 0.516648	 1.000000 
S201	 0.832389	 0.516648	 0.000000 
S202	 0.736164	 0.516648	 1.000000 
S203	 0.736164	 0.516648	 0.000000 
Mo204	 0.639939	 0.572204	 0.500000 
Mo205	 0.736164	 0.572204	 0.500000 
S206	 0.688052	 0.599982	 1.000000 
S207	 0.688052	 0.599982	 0.000000 
S208	 0.591827	 0.599982	 1.000000 
S209	 0.591827	 0.599982	 0.000000 
Mo210	 0.495602	 0.655537	 0.500000 
Mo211	 0.591827	 0.655537	 0.500000 
S212	 0.543714	 0.683315	 1.000000 
S213	 0.543714	 0.683315	 0.000000 
S214	 0.447489	 0.683315	 1.000000 
S215	 0.447489	 0.683315	 0.000000 
Mo216	 0.351264	 0.738871	 0.500000 
Mo217	 0.447489	 0.738871	 0.500000 
S218	 0.399377	 0.766648	 1.000000 
S219	 0.399377	 0.766648	 0.000000 
S220	 0.303152	 0.766648	 1.000000 
S221	 0.303152	 0.766648	 0.000000 
Mo222	 0.206927	 0.822204	 0.500000 
Mo223	 0.303152	 0.822204	 0.500000 
S224	 0.255039	 0.849982	 1.000000 
S225	 0.255039	 0.849982	 0.000000 
S226	 0.158814	 0.849982	 1.000000 
S227	 0.158814	 0.849982	 0.000000 
Mo228	 0.928614	 0.405537	 0.500000 
Mo229	 0.158814	 0.905537	 0.500000 
S230	 0.976727	 0.433315	 1.000000 
S231	 0.976727	 0.433315	 0.000000 
S232	 0.928614	 0.516648	 1.000000 
S233	 0.928614	 0.516648	 0.000000 
Mo234	 0.832389	 0.572204	 0.500000 
Mo235	 0.928614	 0.572204	 0.500000 
S236	 0.880502	 0.599982	 1.000000 
S237	 0.880502	 0.599982	 0.000000 
S238	 0.784277	 0.599982	 1.000000 
S239	 0.784277	 0.599982	 0.000000 
Mo240	 0.688052	 0.655537	 0.500000 
Mo241	 0.784277	 0.655537	 0.500000 
S242	 0.736164	 0.683315	 1.000000 
S243	 0.736164	 0.683315	 0.000000 
S244	 0.639939	 0.683315	 1.000000 
S245	 0.639939	 0.683315	 0.000000 
Mo246	 0.543714	 0.738871	 0.500000 
Mo247	 0.639939	 0.738871	 0.500000 
S248	 0.591827	 0.766648	 1.000000 
S249	 0.591827	 0.766648	 0.000000 
S250	 0.495602	 0.766648	 1.000000 
S251	 0.495602	 0.766648	 0.000000 
Mo252	 0.399377	 0.822204	 0.500000 
Mo253	 0.495602	 0.822204	 0.500000 
S254	 0.447489	 0.849982	 1.000000 
S255	 0.447489	 0.849982	 0.000000 
S256	 0.351264	 0.849982	 1.000000 
S257	 0.351264	 0.849982	 0.000000 
Mo258	 0.255039	 0.905537	 0.500000 
Mo259	 0.351264	 0.905537	 0.500000 
S260	 0.303152	 0.933315	 1.000000 
S261	 0.303152	 0.933315	 0.000000 
S262	 0.206927	 0.933315	 1.000000 
S263	 0.206927	 0.933315	 0.000000 
Mo264	 0.976727	 0.488871	 0.500000 
Mo265	 0.206927	 0.988871	 0.500000 
S266	 0.976727	 0.599982	 1.000000 
S267	 0.976727	 0.599982	 0.000000 
Mo268	 0.880502	 0.655537	 0.500000 
Mo269	 0.976727	 0.655537	 0.500000 
S270	 0.928614	 0.683315	 1.000000 
S271	 0.928614	 0.683315	 0.000000 
S272	 0.832389	 0.683315	 1.000000 
S273	 0.832389	 0.683315	 0.000000 
Mo274	 0.736164	 0.738871	 0.500000 
Mo275	 0.832389	 0.738871	 0.500000 
S276	 0.784277	 0.766648	 1.000000 
S277	 0.784277	 0.766648	 0.000000 
S278	 0.688052	 0.766648	 1.000000 
S279	 0.688052	 0.766648	 0.000000 
Mo280	 0.591827	 0.822204	 0.500000 
Mo281	 0.688052	 0.822204	 0.500000 
S282	 0.639939	 0.849982	 1.000000 
S283	 0.639939	 0.849982	 0.000000 
S284	 0.543714	 0.849982	 1.000000 
S285	 0.543714	 0.849982	 0.000000 
Mo286	 0.447489	 0.905537	 0.500000 
Mo287	 0.543714	 0.905537	 0.500000 
S288	 0.495602	 0.933315	 1.000000 
S289	 0.495602	 0.933315	 0.000000 
S290	 0.399377	 0.933315	 1.000000 
S291	 0.399377	 0.933315	 0.000000 
Mo292	 0.303152	 0.988871	 0.500000 
Mo293	 0.399377	 0.988871	 0.500000 
Mo294	 0.928614	 0.738871	 0.500000 
S295	 0.976727	 0.766648	 1.000000 
S296	 0.976727	 0.766648	 0.000000 
S297	 0.880502	 0.766648	 1.000000 
S298	 0.880502	 0.766648	 0.000000 
Mo299	 0.784277	 0.822204	 0.500000 
Mo300	 0.880502	 0.822204	 0.500000 
S301	 0.832389	 0.849982	 1.000000 
S302	 0.832389	 0.849982	 0.000000 
S303	 0.736164	 0.849982	 1.000000 
S304	 0.736164	 0.849982	 0.000000 
Mo305	 0.639939	 0.905537	 0.500000 
Mo306	 0.736164	 0.905537	 0.500000 
S307	 0.688052	 0.933315	 1.000000 
S308	 0.688052	 0.933315	 0.000000 
S309	 0.591827	 0.933315	 1.000000 
S310	 0.591827	 0.933315	 0.000000 
Mo311	 0.495602	 0.988871	 0.500000 
Mo312	 0.591827	 0.988871	 0.500000 
#                 ---end-of-data-block---
