data_Single Layer of MoS2nx 10 ny 6 nz 1
_cell_length_a               32.423991
_cell_length_b               32.423991
_cell_length_c               3.080000
_cell_angle_alpha          90.000000
_cell_angle_beta           90.000000
_cell_angle_gamma          90.000000
_symmetry_cell_setting          Triclinic
_symmetry_space_group_name_H-M 'P 1' 
loop_
_atom_site_label
_atom_site_fract_x
_atom_site_fract_y
_atom_site_fract_z
S1	 0.466257	 0.020977	 1.000000 
S2	 0.466257	 0.020977	 0.000000 
S3	 0.370032	 0.020977	 1.000000 
S4	 0.370032	 0.020977	 0.000000 
Mo5	 0.273807	 0.076532	 0.500000 
Mo6	 0.370032	 0.076532	 0.500000 
S7	 0.321919	 0.104310	 1.000000 
S8	 0.321919	 0.104310	 0.000000 
S9	 0.225694	 0.104310	 1.000000 
S10	 0.225694	 0.104310	 0.000000 
Mo11	 0.129469	 0.159866	 0.500000 
Mo12	 0.225694	 0.159866	 0.500000 
S13	 0.177582	 0.187643	 1.000000 
S14	 0.177582	 0.187643	 0.000000 
S15	 0.081357	 0.187643	 1.000000 
S16	 0.081357	 0.187643	 0.000000 
Mo17	 0.081357	 0.243199	 0.500000 
S18	 0.033244	 0.270977	 1.000000 
S19	 0.033244	 0.270977	 0.000000 
S20	 0.658707	 0.020977	 1.000000 
S21	 0.658707	 0.020977	 0.000000 
S22	 0.562482	 0.020977	 1.000000 
S23	 0.562482	 0.020977	 0.000000 
Mo24	 0.466257	 0.076532	 0.500000 
Mo25	 0.562482	 0.076532	 0.500000 
S26	 0.514370	 0.104310	 1.000000 
S27	 0.514370	 0.104310	 0.000000 
S28	 0.418145	 0.104310	 1.000000 
S29	 0.418145	 0.104310	 0.000000 
Mo30	 0.321919	 0.159866	 0.500000 
Mo31	 0.418145	 0.159866	 0.500000 
S32	 0.370032	 0.187643	 1.000000 
S33	 0.370032	 0.187643	 0.000000 
S34	 0.273807	 0.187643	 1.000000 
S35	 0.273807	 0.187643	 0.000000 
Mo36	 0.177582	 0.243199	 0.500000 
Mo37	 0.273807	 0.243199	 0.500000 
S38	 0.225694	 0.270977	 1.000000 
S39	 0.225694	 0.270977	 0.000000 
S40	 0.129469	 0.270977	 1.000000 
S41	 0.129469	 0.270977	 0.000000 
Mo42	 0.033244	 0.326532	 0.500000 
Mo43	 0.129469	 0.326532	 0.500000 
S44	 0.081357	 0.354310	 1.000000 
S45	 0.081357	 0.354310	 0.000000 
S46	 0.754932	 0.020977	 1.000000 
S47	 0.754932	 0.020977	 0.000000 
Mo48	 0.658707	 0.076532	 0.500000 
Mo49	 0.754932	 0.076532	 0.500000 
S50	 0.706820	 0.104310	 1.000000 
S51	 0.706820	 0.104310	 0.000000 
S52	 0.610595	 0.104310	 1.000000 
S53	 0.610595	 0.104310	 0.000000 
Mo54	 0.514370	 0.159866	 0.500000 
Mo55	 0.610595	 0.159866	 0.500000 
S56	 0.562482	 0.187643	 1.000000 
S57	 0.562482	 0.187643	 0.000000 
S58	 0.466257	 0.187643	 1.000000 
S59	 0.466257	 0.187643	 0.000000 
Mo60	 0.370032	 0.243199	 0.500000 
Mo61	 0.466257	 0.243199	 0.500000 
S62	 0.418145	 0.270977	 1.000000 
S63	 0.418145	 0.270977	 0.000000 
S64	 0.321919	 0.270977	 1.000000 
S65	 0.321919	 0.270977	 0.000000 
Mo66	 0.225694	 0.326532	 0.500000 
Mo67	 0.321919	 0.326532	 0.500000 
S68	 0.273807	 0.354310	 1.000000 
S69	 0.273807	 0.354310	 0.000000 
S70	 0.177582	 0.354310	 1.000000 
S71	 0.177582	 0.354310	 0.000000 
Mo72	 0.081357	 0.409866	 0.500000 
Mo73	 0.177582	 0.409866	 0.500000 
S74	 0.129469	 0.437643	 1.000000 
S75	 0.129469	 0.437643	 0.000000 
S76	 0.033244	 0.437643	 1.000000 
S77	 0.033244	 0.437643	 0.000000 
Mo78	 0.033244	 0.493199	 0.500000 
S79	 0.803045	 0.104310	 1.000000 
S80	 0.803045	 0.104310	 0.000000 
Mo81	 0.706820	 0.159866	 0.500000 
Mo82	 0.803045	 0.159866	 0.500000 
S83	 0.754932	 0.187643	 1.000000 
S84	 0.754932	 0.187643	 0.000000 
S85	 0.658707	 0.187643	 1.000000 
S86	 0.658707	 0.187643	 0.000000 
Mo87	 0.562482	 0.243199	 0.500000 
Mo88	 0.658707	 0.243199	 0.500000 
S89	 0.610595	 0.270977	 1.000000 
S90	 0.610595	 0.270977	 0.000000 
S91	 0.514370	 0.270977	 1.000000 
S92	 0.514370	 0.270977	 0.000000 
Mo93	 0.418145	 0.326532	 0.500000 
Mo94	 0.514370	 0.326532	 0.500000 
S95	 0.466257	 0.354310	 1.000000 
S96	 0.466257	 0.354310	 0.000000 
S97	 0.370032	 0.354310	 1.000000 
S98	 0.370032	 0.354310	 0.000000 
Mo99	 0.273807	 0.409866	 0.500000 
Mo100	 0.370032	 0.409866	 0.500000 
S101	 0.321919	 0.437643	 1.000000 
S102	 0.321919	 0.437643	 0.000000 
S103	 0.225694	 0.437643	 1.000000 
S104	 0.225694	 0.437643	 0.000000 
Mo105	 0.129469	 0.493199	 0.500000 
Mo106	 0.225694	 0.493199	 0.500000 
S107	 0.177582	 0.520977	 1.000000 
S108	 0.177582	 0.520977	 0.000000 
S109	 0.081357	 0.520977	 1.000000 
S110	 0.081357	 0.520977	 0.000000 
Mo111	 0.081357	 0.576532	 0.500000 
S112	 0.033244	 0.604310	 1.000000 
S113	 0.033244	 0.604310	 0.000000 
S114	 0.851157	 0.187643	 1.000000 
S115	 0.851157	 0.187643	 0.000000 
Mo116	 0.754932	 0.243199	 0.500000 
Mo117	 0.851157	 0.243199	 0.500000 
S118	 0.803045	 0.270977	 1.000000 
S119	 0.803045	 0.270977	 0.000000 
S120	 0.706820	 0.270977	 1.000000 
S121	 0.706820	 0.270977	 0.000000 
Mo122	 0.610595	 0.326532	 0.500000 
Mo123	 0.706820	 0.326532	 0.500000 
S124	 0.658707	 0.354310	 1.000000 
S125	 0.658707	 0.354310	 0.000000 
S126	 0.562482	 0.354310	 1.000000 
S127	 0.562482	 0.354310	 0.000000 
Mo128	 0.466257	 0.409866	 0.500000 
Mo129	 0.562482	 0.409866	 0.500000 
S130	 0.514370	 0.437643	 1.000000 
S131	 0.514370	 0.437643	 0.000000 
S132	 0.418145	 0.437643	 1.000000 
S133	 0.418145	 0.437643	 0.000000 
Mo134	 0.321919	 0.493199	 0.500000 
Mo135	 0.418145	 0.493199	 0.500000 
S136	 0.370032	 0.520977	 1.000000 
S137	 0.370032	 0.520977	 0.000000 
S138	 0.273807	 0.520977	 1.000000 
S139	 0.273807	 0.520977	 0.000000 
Mo140	 0.177582	 0.576532	 0.500000 
Mo141	 0.273807	 0.576532	 0.500000 
S142	 0.225694	 0.604310	 1.000000 
S143	 0.225694	 0.604310	 0.000000 
S144	 0.129469	 0.604310	 1.000000 
S145	 0.129469	 0.604310	 0.000000 
Mo146	 0.033244	 0.659866	 0.500000 
Mo147	 0.129469	 0.659866	 0.500000 
S148	 0.081357	 0.687643	 1.000000 
S149	 0.081357	 0.687643	 0.000000 
S150	 0.899270	 0.270977	 1.000000 
S151	 0.899270	 0.270977	 0.000000 
Mo152	 0.803045	 0.326532	 0.500000 
Mo153	 0.899270	 0.326532	 0.500000 
S154	 0.851157	 0.354310	 1.000000 
S155	 0.851157	 0.354310	 0.000000 
S156	 0.754932	 0.354310	 1.000000 
S157	 0.754932	 0.354310	 0.000000 
Mo158	 0.658707	 0.409866	 0.500000 
Mo159	 0.754932	 0.409866	 0.500000 
S160	 0.706820	 0.437643	 1.000000 
S161	 0.706820	 0.437643	 0.000000 
S162	 0.610595	 0.437643	 1.000000 
S163	 0.610595	 0.437643	 0.000000 
Mo164	 0.514370	 0.493199	 0.500000 
Mo165	 0.610595	 0.493199	 0.500000 
S166	 0.562482	 0.520977	 1.000000 
S167	 0.562482	 0.520977	 0.000000 
S168	 0.466257	 0.520977	 1.000000 
S169	 0.466257	 0.520977	 0.000000 
Mo170	 0.370032	 0.576532	 0.500000 
Mo171	 0.466257	 0.576532	 0.500000 
S172	 0.418145	 0.604310	 1.000000 
S173	 0.418145	 0.604310	 0.000000 
S174	 0.321919	 0.604310	 1.000000 
S175	 0.321919	 0.604310	 0.000000 
Mo176	 0.225694	 0.659866	 0.500000 
Mo177	 0.321919	 0.659866	 0.500000 
S178	 0.273807	 0.687643	 1.000000 
S179	 0.273807	 0.687643	 0.000000 
S180	 0.177582	 0.687643	 1.000000 
S181	 0.177582	 0.687643	 0.000000 
Mo182	 0.081357	 0.743199	 0.500000 
Mo183	 0.177582	 0.743199	 0.500000 
S184	 0.129469	 0.770977	 1.000000 
S185	 0.129469	 0.770977	 0.000000 
S186	 0.947382	 0.354310	 1.000000 
S187	 0.947382	 0.354310	 0.000000 
Mo188	 0.851157	 0.409866	 0.500000 
Mo189	 0.947382	 0.409866	 0.500000 
S190	 0.899270	 0.437643	 1.000000 
S191	 0.899270	 0.437643	 0.000000 
S192	 0.803045	 0.437643	 1.000000 
S193	 0.803045	 0.437643	 0.000000 
Mo194	 0.706820	 0.493199	 0.500000 
Mo195	 0.803045	 0.493199	 0.500000 
S196	 0.754932	 0.520977	 1.000000 
S197	 0.754932	 0.520977	 0.000000 
S198	 0.658707	 0.520977	 1.000000 
S199	 0.658707	 0.520977	 0.000000 
Mo200	 0.562482	 0.576532	 0.500000 
Mo201	 0.658707	 0.576532	 0.500000 
S202	 0.610595	 0.604310	 1.000000 
S203	 0.610595	 0.604310	 0.000000 
S204	 0.514370	 0.604310	 1.000000 
S205	 0.514370	 0.604310	 0.000000 
Mo206	 0.418145	 0.659866	 0.500000 
Mo207	 0.514370	 0.659866	 0.500000 
S208	 0.466257	 0.687643	 1.000000 
S209	 0.466257	 0.687643	 0.000000 
S210	 0.370032	 0.687643	 1.000000 
S211	 0.370032	 0.687643	 0.000000 
Mo212	 0.273807	 0.743199	 0.500000 
Mo213	 0.370032	 0.743199	 0.500000 
S214	 0.321919	 0.770977	 1.000000 
S215	 0.321919	 0.770977	 0.000000 
S216	 0.225694	 0.770977	 1.000000 
S217	 0.225694	 0.770977	 0.000000 
Mo218	 0.129469	 0.826532	 0.500000 
Mo219	 0.225694	 0.826532	 0.500000 
S220	 0.177582	 0.854310	 1.000000 
S221	 0.177582	 0.854310	 0.000000 
S222	 0.995495	 0.437643	 1.000000 
S223	 0.995495	 0.437643	 0.000000 
Mo224	 0.899270	 0.493199	 0.500000 
Mo225	 0.995495	 0.493199	 0.500000 
S226	 0.947382	 0.520977	 1.000000 
S227	 0.947382	 0.520977	 0.000000 
S228	 0.851157	 0.520977	 1.000000 
S229	 0.851157	 0.520977	 0.000000 
Mo230	 0.754932	 0.576532	 0.500000 
Mo231	 0.851157	 0.576532	 0.500000 
S232	 0.803045	 0.604310	 1.000000 
S233	 0.803045	 0.604310	 0.000000 
S234	 0.706820	 0.604310	 1.000000 
S235	 0.706820	 0.604310	 0.000000 
Mo236	 0.610595	 0.659866	 0.500000 
Mo237	 0.706820	 0.659866	 0.500000 
S238	 0.658707	 0.687643	 1.000000 
S239	 0.658707	 0.687643	 0.000000 
S240	 0.562482	 0.687643	 1.000000 
S241	 0.562482	 0.687643	 0.000000 
Mo242	 0.466257	 0.743199	 0.500000 
Mo243	 0.562482	 0.743199	 0.500000 
S244	 0.514370	 0.770977	 1.000000 
S245	 0.514370	 0.770977	 0.000000 
S246	 0.418145	 0.770977	 1.000000 
S247	 0.418145	 0.770977	 0.000000 
Mo248	 0.321919	 0.826532	 0.500000 
Mo249	 0.418145	 0.826532	 0.500000 
S250	 0.370032	 0.854310	 1.000000 
S251	 0.370032	 0.854310	 0.000000 
S252	 0.273807	 0.854310	 1.000000 
S253	 0.273807	 0.854310	 0.000000 
Mo254	 0.177582	 0.909866	 0.500000 
Mo255	 0.273807	 0.909866	 0.500000 
S256	 0.225694	 0.937643	 1.000000 
S257	 0.225694	 0.937643	 0.000000 
Mo258	 0.947382	 0.576532	 0.500000 
S259	 0.995495	 0.604310	 1.000000 
S260	 0.995495	 0.604310	 0.000000 
S261	 0.899270	 0.604310	 1.000000 
S262	 0.899270	 0.604310	 0.000000 
Mo263	 0.803045	 0.659866	 0.500000 
Mo264	 0.899270	 0.659866	 0.500000 
S265	 0.851157	 0.687643	 1.000000 
S266	 0.851157	 0.687643	 0.000000 
S267	 0.754932	 0.687643	 1.000000 
S268	 0.754932	 0.687643	 0.000000 
Mo269	 0.658707	 0.743199	 0.500000 
Mo270	 0.754932	 0.743199	 0.500000 
S271	 0.706820	 0.770977	 1.000000 
S272	 0.706820	 0.770977	 0.000000 
S273	 0.610595	 0.770977	 1.000000 
S274	 0.610595	 0.770977	 0.000000 
Mo275	 0.514370	 0.826532	 0.500000 
Mo276	 0.610595	 0.826532	 0.500000 
S277	 0.562482	 0.854310	 1.000000 
S278	 0.562482	 0.854310	 0.000000 
S279	 0.466257	 0.854310	 1.000000 
S280	 0.466257	 0.854310	 0.000000 
Mo281	 0.370032	 0.909866	 0.500000 
Mo282	 0.466257	 0.909866	 0.500000 
S283	 0.418145	 0.937643	 1.000000 
S284	 0.418145	 0.937643	 0.000000 
S285	 0.321919	 0.937643	 1.000000 
S286	 0.321919	 0.937643	 0.000000 
Mo287	 0.225694	 0.993199	 0.500000 
Mo288	 0.321919	 0.993199	 0.500000 
Mo289	 0.995495	 0.659866	 0.500000 
S290	 0.947382	 0.687643	 1.000000 
S291	 0.947382	 0.687643	 0.000000 
Mo292	 0.851157	 0.743199	 0.500000 
Mo293	 0.947382	 0.743199	 0.500000 
S294	 0.899270	 0.770977	 1.000000 
S295	 0.899270	 0.770977	 0.000000 
S296	 0.803045	 0.770977	 1.000000 
S297	 0.803045	 0.770977	 0.000000 
Mo298	 0.706820	 0.826532	 0.500000 
Mo299	 0.803045	 0.826532	 0.500000 
S300	 0.754932	 0.854310	 1.000000 
S301	 0.754932	 0.854310	 0.000000 
S302	 0.658707	 0.854310	 1.000000 
S303	 0.658707	 0.854310	 0.000000 
Mo304	 0.562482	 0.909866	 0.500000 
Mo305	 0.658707	 0.909866	 0.500000 
S306	 0.610595	 0.937643	 1.000000 
S307	 0.610595	 0.937643	 0.000000 
S308	 0.514370	 0.937643	 1.000000 
S309	 0.514370	 0.937643	 0.000000 
Mo310	 0.418145	 0.993199	 0.500000 
Mo311	 0.514370	 0.993199	 0.500000 
#                 ---end-of-data-block---
