data_Single Layer of MoS2nx 10 ny 6 nz 1
_cell_length_a               32.423991
_cell_length_b               32.423991
_cell_length_c               3.080000
_cell_angle_alpha          90.000000
_cell_angle_beta           90.000000
_cell_angle_gamma          90.000000
_symmetry_cell_setting          Triclinic
_symmetry_space_group_name_H-M 'P 1' 
loop_
_atom_site_label
_atom_site_fract_x
_atom_site_fract_y
_atom_site_fract_z
Mo1	 0.367404	 0.036802	 0.500000 
Mo2	 0.463629	 0.036802	 0.500000 
S3	 0.415517	 0.064580	 1.000000 
S4	 0.415517	 0.064580	 0.000000 
S5	 0.319292	 0.064580	 1.000000 
S6	 0.319292	 0.064580	 0.000000 
Mo7	 0.223067	 0.120136	 0.500000 
Mo8	 0.319292	 0.120136	 0.500000 
S9	 0.271179	 0.147913	 1.000000 
S10	 0.271179	 0.147913	 0.000000 
S11	 0.174954	 0.147913	 1.000000 
S12	 0.174954	 0.147913	 0.000000 
Mo13	 0.078729	 0.203469	 0.500000 
Mo14	 0.174954	 0.203469	 0.500000 
S15	 0.126842	 0.231247	 1.000000 
S16	 0.126842	 0.231247	 0.000000 
S17	 0.030617	 0.231247	 1.000000 
S18	 0.030617	 0.231247	 0.000000 
Mo19	 0.030617	 0.286802	 0.500000 
Mo20	 0.559854	 0.036802	 0.500000 
Mo21	 0.656079	 0.036802	 0.500000 
S22	 0.607967	 0.064580	 1.000000 
S23	 0.607967	 0.064580	 0.000000 
S24	 0.511742	 0.064580	 1.000000 
S25	 0.511742	 0.064580	 0.000000 
Mo26	 0.415517	 0.120136	 0.500000 
Mo27	 0.511742	 0.120136	 0.500000 
S28	 0.463629	 0.147913	 1.000000 
S29	 0.463629	 0.147913	 0.000000 
S30	 0.367404	 0.147913	 1.000000 
S31	 0.367404	 0.147913	 0.000000 
Mo32	 0.271179	 0.203469	 0.500000 
Mo33	 0.367404	 0.203469	 0.500000 
S34	 0.319292	 0.231247	 1.000000 
S35	 0.319292	 0.231247	 0.000000 
S36	 0.223067	 0.231247	 1.000000 
S37	 0.223067	 0.231247	 0.000000 
Mo38	 0.126842	 0.286802	 0.500000 
Mo39	 0.223067	 0.286802	 0.500000 
S40	 0.174954	 0.314580	 1.000000 
S41	 0.174954	 0.314580	 0.000000 
S42	 0.078729	 0.314580	 1.000000 
S43	 0.078729	 0.314580	 0.000000 
Mo44	 0.078729	 0.370136	 0.500000 
S45	 0.030617	 0.397913	 1.000000 
S46	 0.030617	 0.397913	 0.000000 
S47	 0.704192	 0.064580	 1.000000 
S48	 0.704192	 0.064580	 0.000000 
Mo49	 0.607967	 0.120136	 0.500000 
Mo50	 0.704192	 0.120136	 0.500000 
S51	 0.656079	 0.147913	 1.000000 
S52	 0.656079	 0.147913	 0.000000 
S53	 0.559854	 0.147913	 1.000000 
S54	 0.559854	 0.147913	 0.000000 
Mo55	 0.463629	 0.203469	 0.500000 
Mo56	 0.559854	 0.203469	 0.500000 
S57	 0.511742	 0.231247	 1.000000 
S58	 0.511742	 0.231247	 0.000000 
S59	 0.415517	 0.231247	 1.000000 
S60	 0.415517	 0.231247	 0.000000 
Mo61	 0.319292	 0.286802	 0.500000 
Mo62	 0.415517	 0.286802	 0.500000 
S63	 0.367404	 0.314580	 1.000000 
S64	 0.367404	 0.314580	 0.000000 
S65	 0.271179	 0.314580	 1.000000 
S66	 0.271179	 0.314580	 0.000000 
Mo67	 0.174954	 0.370136	 0.500000 
Mo68	 0.271179	 0.370136	 0.500000 
S69	 0.223067	 0.397913	 1.000000 
S70	 0.223067	 0.397913	 0.000000 
S71	 0.126842	 0.397913	 1.000000 
S72	 0.126842	 0.397913	 0.000000 
Mo73	 0.030617	 0.453469	 0.500000 
Mo74	 0.126842	 0.453469	 0.500000 
S75	 0.078729	 0.481247	 1.000000 
S76	 0.078729	 0.481247	 0.000000 
Mo77	 0.752305	 0.036802	 0.500000 
S78	 0.800417	 0.064580	 1.000000 
S79	 0.800417	 0.064580	 0.000000 
S80	 0.752305	 0.147913	 1.000000 
S81	 0.752305	 0.147913	 0.000000 
Mo82	 0.656079	 0.203469	 0.500000 
Mo83	 0.752305	 0.203469	 0.500000 
S84	 0.704192	 0.231247	 1.000000 
S85	 0.704192	 0.231247	 0.000000 
S86	 0.607967	 0.231247	 1.000000 
S87	 0.607967	 0.231247	 0.000000 
Mo88	 0.511742	 0.286802	 0.500000 
Mo89	 0.607967	 0.286802	 0.500000 
S90	 0.559854	 0.314580	 1.000000 
S91	 0.559854	 0.314580	 0.000000 
S92	 0.463629	 0.314580	 1.000000 
S93	 0.463629	 0.314580	 0.000000 
Mo94	 0.367404	 0.370136	 0.500000 
Mo95	 0.463629	 0.370136	 0.500000 
S96	 0.415517	 0.397913	 1.000000 
S97	 0.415517	 0.397913	 0.000000 
S98	 0.319292	 0.397913	 1.000000 
S99	 0.319292	 0.397913	 0.000000 
Mo100	 0.223067	 0.453469	 0.500000 
Mo101	 0.319292	 0.453469	 0.500000 
S102	 0.271179	 0.481247	 1.000000 
S103	 0.271179	 0.481247	 0.000000 
S104	 0.174954	 0.481247	 1.000000 
S105	 0.174954	 0.481247	 0.000000 
Mo106	 0.078729	 0.536802	 0.500000 
Mo107	 0.174954	 0.536802	 0.500000 
S108	 0.126842	 0.564580	 1.000000 
S109	 0.126842	 0.564580	 0.000000 
S110	 0.030617	 0.564580	 1.000000 
S111	 0.030617	 0.564580	 0.000000 
Mo112	 0.800417	 0.120136	 0.500000 
Mo113	 0.030617	 0.620136	 0.500000 
S114	 0.848530	 0.147913	 1.000000 
S115	 0.848530	 0.147913	 0.000000 
S116	 0.800417	 0.231247	 1.000000 
S117	 0.800417	 0.231247	 0.000000 
Mo118	 0.704192	 0.286802	 0.500000 
Mo119	 0.800417	 0.286802	 0.500000 
S120	 0.752305	 0.314580	 1.000000 
S121	 0.752305	 0.314580	 0.000000 
S122	 0.656079	 0.314580	 1.000000 
S123	 0.656079	 0.314580	 0.000000 
Mo124	 0.559854	 0.370136	 0.500000 
Mo125	 0.656079	 0.370136	 0.500000 
S126	 0.607967	 0.397913	 1.000000 
S127	 0.607967	 0.397913	 0.000000 
S128	 0.511742	 0.397913	 1.000000 
S129	 0.511742	 0.397913	 0.000000 
Mo130	 0.415517	 0.453469	 0.500000 
Mo131	 0.511742	 0.453469	 0.500000 
S132	 0.463629	 0.481247	 1.000000 
S133	 0.463629	 0.481247	 0.000000 
S134	 0.367404	 0.481247	 1.000000 
S135	 0.367404	 0.481247	 0.000000 
Mo136	 0.271179	 0.536802	 0.500000 
Mo137	 0.367404	 0.536802	 0.500000 
S138	 0.319292	 0.564580	 1.000000 
S139	 0.319292	 0.564580	 0.000000 
S140	 0.223067	 0.564580	 1.000000 
S141	 0.223067	 0.564580	 0.000000 
Mo142	 0.126842	 0.620136	 0.500000 
Mo143	 0.223067	 0.620136	 0.500000 
S144	 0.174954	 0.647913	 1.000000 
S145	 0.174954	 0.647913	 0.000000 
S146	 0.078729	 0.647913	 1.000000 
S147	 0.078729	 0.647913	 0.000000 
Mo148	 0.848530	 0.203469	 0.500000 
Mo149	 0.078729	 0.703469	 0.500000 
S150	 0.896642	 0.231247	 1.000000 
S151	 0.896642	 0.231247	 0.000000 
S152	 0.848530	 0.314580	 1.000000 
S153	 0.848530	 0.314580	 0.000000 
Mo154	 0.752305	 0.370136	 0.500000 
Mo155	 0.848530	 0.370136	 0.500000 
S156	 0.800417	 0.397913	 1.000000 
S157	 0.800417	 0.397913	 0.000000 
S158	 0.704192	 0.397913	 1.000000 
S159	 0.704192	 0.397913	 0.000000 
Mo160	 0.607967	 0.453469	 0.500000 
Mo161	 0.704192	 0.453469	 0.500000 
S162	 0.656079	 0.481247	 1.000000 
S163	 0.656079	 0.481247	 0.000000 
S164	 0.559854	 0.481247	 1.000000 
S165	 0.559854	 0.481247	 0.000000 
Mo166	 0.463629	 0.536802	 0.500000 
Mo167	 0.559854	 0.536802	 0.500000 
S168	 0.511742	 0.564580	 1.000000 
S169	 0.511742	 0.564580	 0.000000 
S170	 0.415517	 0.564580	 1.000000 
S171	 0.415517	 0.564580	 0.000000 
Mo172	 0.319292	 0.620136	 0.500000 
Mo173	 0.415517	 0.620136	 0.500000 
S174	 0.367404	 0.647913	 1.000000 
S175	 0.367404	 0.647913	 0.000000 
S176	 0.271179	 0.647913	 1.000000 
S177	 0.271179	 0.647913	 0.000000 
Mo178	 0.174954	 0.703469	 0.500000 
Mo179	 0.271179	 0.703469	 0.500000 
S180	 0.223067	 0.731247	 1.000000 
S181	 0.223067	 0.731247	 0.000000 
S182	 0.126842	 0.731247	 1.000000 
S183	 0.126842	 0.731247	 0.000000 
Mo184	 0.896642	 0.286802	 0.500000 
Mo185	 0.126842	 0.786802	 0.500000 
S186	 0.944755	 0.314580	 1.000000 
S187	 0.944755	 0.314580	 0.000000 
S188	 0.896642	 0.397913	 1.000000 
S189	 0.896642	 0.397913	 0.000000 
Mo190	 0.800417	 0.453469	 0.500000 
Mo191	 0.896642	 0.453469	 0.500000 
S192	 0.848530	 0.481247	 1.000000 
S193	 0.848530	 0.481247	 0.000000 
S194	 0.752305	 0.481247	 1.000000 
S195	 0.752305	 0.481247	 0.000000 
Mo196	 0.656079	 0.536802	 0.500000 
Mo197	 0.752305	 0.536802	 0.500000 
S198	 0.704192	 0.564580	 1.000000 
S199	 0.704192	 0.564580	 0.000000 
S200	 0.607967	 0.564580	 1.000000 
S201	 0.607967	 0.564580	 0.000000 
Mo202	 0.511742	 0.620136	 0.500000 
Mo203	 0.607967	 0.620136	 0.500000 
S204	 0.559854	 0.647913	 1.000000 
S205	 0.559854	 0.647913	 0.000000 
S206	 0.463629	 0.647913	 1.000000 
S207	 0.463629	 0.647913	 0.000000 
Mo208	 0.367404	 0.703469	 0.500000 
Mo209	 0.463629	 0.703469	 0.500000 
S210	 0.415517	 0.731247	 1.000000 
S211	 0.415517	 0.731247	 0.000000 
S212	 0.319292	 0.731247	 1.000000 
S213	 0.319292	 0.731247	 0.000000 
Mo214	 0.223067	 0.786802	 0.500000 
Mo215	 0.319292	 0.786802	 0.500000 
S216	 0.271179	 0.814580	 1.000000 
S217	 0.271179	 0.814580	 0.000000 
S218	 0.174954	 0.814580	 1.000000 
S219	 0.174954	 0.814580	 0.000000 
Mo220	 0.944755	 0.370136	 0.500000 
Mo221	 0.174954	 0.870136	 0.500000 
S222	 0.992867	 0.397913	 1.000000 
S223	 0.992867	 0.397913	 0.000000 
S224	 0.944755	 0.481247	 1.000000 
S225	 0.944755	 0.481247	 0.000000 
Mo226	 0.848530	 0.536802	 0.500000 
Mo227	 0.944755	 0.536802	 0.500000 
S228	 0.896642	 0.564580	 1.000000 
S229	 0.896642	 0.564580	 0.000000 
S230	 0.800417	 0.564580	 1.000000 
S231	 0.800417	 0.564580	 0.000000 
Mo232	 0.704192	 0.620136	 0.500000 
Mo233	 0.800417	 0.620136	 0.500000 
S234	 0.752305	 0.647913	 1.000000 
S235	 0.752305	 0.647913	 0.000000 
S236	 0.656079	 0.647913	 1.000000 
S237	 0.656079	 0.647913	 0.000000 
Mo238	 0.559854	 0.703469	 0.500000 
Mo239	 0.656079	 0.703469	 0.500000 
S240	 0.607967	 0.731247	 1.000000 
S241	 0.607967	 0.731247	 0.000000 
S242	 0.511742	 0.731247	 1.000000 
S243	 0.511742	 0.731247	 0.000000 
Mo244	 0.415517	 0.786802	 0.500000 
Mo245	 0.511742	 0.786802	 0.500000 
S246	 0.463629	 0.814580	 1.000000 
S247	 0.463629	 0.814580	 0.000000 
S248	 0.367404	 0.814580	 1.000000 
S249	 0.367404	 0.814580	 0.000000 
Mo250	 0.271179	 0.870136	 0.500000 
Mo251	 0.367404	 0.870136	 0.500000 
S252	 0.319292	 0.897913	 1.000000 
S253	 0.319292	 0.897913	 0.000000 
S254	 0.223067	 0.897913	 1.000000 
S255	 0.223067	 0.897913	 0.000000 
Mo256	 0.992867	 0.453469	 0.500000 
Mo257	 0.223067	 0.953469	 0.500000 
S258	 0.992867	 0.564580	 1.000000 
S259	 0.992867	 0.564580	 0.000000 
Mo260	 0.896642	 0.620136	 0.500000 
Mo261	 0.992867	 0.620136	 0.500000 
S262	 0.944755	 0.647913	 1.000000 
S263	 0.944755	 0.647913	 0.000000 
S264	 0.848530	 0.647913	 1.000000 
S265	 0.848530	 0.647913	 0.000000 
Mo266	 0.752305	 0.703469	 0.500000 
Mo267	 0.848530	 0.703469	 0.500000 
S268	 0.800417	 0.731247	 1.000000 
S269	 0.800417	 0.731247	 0.000000 
S270	 0.704192	 0.731247	 1.000000 
S271	 0.704192	 0.731247	 0.000000 
Mo272	 0.607967	 0.786802	 0.500000 
Mo273	 0.704192	 0.786802	 0.500000 
S274	 0.656079	 0.814580	 1.000000 
S275	 0.656079	 0.814580	 0.000000 
S276	 0.559854	 0.814580	 1.000000 
S277	 0.559854	 0.814580	 0.000000 
Mo278	 0.463629	 0.870136	 0.500000 
Mo279	 0.559854	 0.870136	 0.500000 
S280	 0.511742	 0.897913	 1.000000 
S281	 0.511742	 0.897913	 0.000000 
S282	 0.415517	 0.897913	 1.000000 
S283	 0.415517	 0.897913	 0.000000 
Mo284	 0.319292	 0.953469	 0.500000 
Mo285	 0.415517	 0.953469	 0.500000 
S286	 0.367404	 0.981247	 1.000000 
S287	 0.367404	 0.981247	 0.000000 
S288	 0.271179	 0.981247	 1.000000 
S289	 0.271179	 0.981247	 0.000000 
Mo290	 0.944755	 0.703469	 0.500000 
S291	 0.992867	 0.731247	 1.000000 
S292	 0.992867	 0.731247	 0.000000 
S293	 0.896642	 0.731247	 1.000000 
S294	 0.896642	 0.731247	 0.000000 
Mo295	 0.800417	 0.786802	 0.500000 
Mo296	 0.896642	 0.786802	 0.500000 
S297	 0.848530	 0.814580	 1.000000 
S298	 0.848530	 0.814580	 0.000000 
S299	 0.752305	 0.814580	 1.000000 
S300	 0.752305	 0.814580	 0.000000 
Mo301	 0.656079	 0.870136	 0.500000 
Mo302	 0.752305	 0.870136	 0.500000 
S303	 0.704192	 0.897913	 1.000000 
S304	 0.704192	 0.897913	 0.000000 
S305	 0.607967	 0.897913	 1.000000 
S306	 0.607967	 0.897913	 0.000000 
Mo307	 0.511742	 0.953469	 0.500000 
Mo308	 0.607967	 0.953469	 0.500000 
S309	 0.559854	 0.981247	 1.000000 
S310	 0.559854	 0.981247	 0.000000 
S311	 0.463629	 0.981247	 1.000000 
S312	 0.463629	 0.981247	 0.000000 
#                 ---end-of-data-block---
