data_Single Layer of MoS2nx 10 ny 6 nz 1
_cell_length_a               32.423991
_cell_length_b               32.423991
_cell_length_c               3.080000
_cell_angle_alpha          90.000000
_cell_angle_beta           90.000000
_cell_angle_gamma          90.000000
_symmetry_cell_setting          Triclinic
_symmetry_space_group_name_H-M 'P 1' 
loop_
_atom_site_label
_atom_site_fract_x
_atom_site_fract_y
_atom_site_fract_z
Mo1	 0.730339	 0.025381	 0.500000 
Mo2	 0.823286	 0.050286	 0.500000 
S3	 0.769623	 0.064665	 1.000000 
S4	 0.769623	 0.064665	 0.000000 
S5	 0.676677	 0.039760	 1.000000 
S6	 0.676677	 0.039760	 0.000000 
Mo7	 0.569352	 0.068518	 0.500000 
Mo8	 0.662298	 0.093423	 0.500000 
S9	 0.608636	 0.107801	 1.000000 
S10	 0.608636	 0.107801	 0.000000 
S11	 0.515689	 0.082897	 1.000000 
S12	 0.515689	 0.082897	 0.000000 
Mo13	 0.408364	 0.111654	 0.500000 
Mo14	 0.501310	 0.136559	 0.500000 
S15	 0.447648	 0.150938	 1.000000 
S16	 0.447648	 0.150938	 0.000000 
S17	 0.354702	 0.126033	 1.000000 
S18	 0.354702	 0.126033	 0.000000 
Mo19	 0.247377	 0.154791	 0.500000 
Mo20	 0.340323	 0.179696	 0.500000 
S21	 0.286660	 0.194074	 1.000000 
S22	 0.286660	 0.194074	 0.000000 
S23	 0.193714	 0.169170	 1.000000 
S24	 0.193714	 0.169170	 0.000000 
Mo25	 0.086389	 0.197927	 0.500000 
Mo26	 0.179335	 0.222832	 0.500000 
S27	 0.125673	 0.237211	 1.000000 
S28	 0.125673	 0.237211	 0.000000 
S29	 0.032726	 0.212306	 1.000000 
S30	 0.032726	 0.212306	 0.000000 
Mo31	 0.018348	 0.265969	 0.500000 
S32	 0.862569	 0.089570	 1.000000 
S33	 0.862569	 0.089570	 0.000000 
Mo34	 0.755244	 0.118327	 0.500000 
Mo35	 0.848191	 0.143232	 0.500000 
S36	 0.794528	 0.157611	 1.000000 
S37	 0.794528	 0.157611	 0.000000 
S38	 0.701582	 0.132706	 1.000000 
S39	 0.701582	 0.132706	 0.000000 
Mo40	 0.594257	 0.161464	 0.500000 
Mo41	 0.687203	 0.186369	 0.500000 
S42	 0.633540	 0.200748	 1.000000 
S43	 0.633540	 0.200748	 0.000000 
S44	 0.540594	 0.175843	 1.000000 
S45	 0.540594	 0.175843	 0.000000 
Mo46	 0.433269	 0.204600	 0.500000 
Mo47	 0.526215	 0.229505	 0.500000 
S48	 0.472553	 0.243884	 1.000000 
S49	 0.472553	 0.243884	 0.000000 
S50	 0.379606	 0.218979	 1.000000 
S51	 0.379606	 0.218979	 0.000000 
Mo52	 0.272281	 0.247737	 0.500000 
Mo53	 0.365228	 0.272642	 0.500000 
S54	 0.311565	 0.287021	 1.000000 
S55	 0.311565	 0.287021	 0.000000 
S56	 0.218619	 0.262116	 1.000000 
S57	 0.218619	 0.262116	 0.000000 
Mo58	 0.111294	 0.290874	 0.500000 
Mo59	 0.204240	 0.315778	 0.500000 
S60	 0.150577	 0.330157	 1.000000 
S61	 0.150577	 0.330157	 0.000000 
S62	 0.057631	 0.305252	 1.000000 
S63	 0.057631	 0.305252	 0.000000 
Mo64	 0.043252	 0.358915	 0.500000 
S65	 0.887474	 0.182516	 1.000000 
S66	 0.887474	 0.182516	 0.000000 
Mo67	 0.780149	 0.211274	 0.500000 
Mo68	 0.873095	 0.236179	 0.500000 
S69	 0.819433	 0.250557	 1.000000 
S70	 0.819433	 0.250557	 0.000000 
S71	 0.726487	 0.225653	 1.000000 
S72	 0.726487	 0.225653	 0.000000 
Mo73	 0.619162	 0.254410	 0.500000 
Mo74	 0.712108	 0.279315	 0.500000 
S75	 0.658445	 0.293694	 1.000000 
S76	 0.658445	 0.293694	 0.000000 
S77	 0.565499	 0.268789	 1.000000 
S78	 0.565499	 0.268789	 0.000000 
Mo79	 0.458174	 0.297547	 0.500000 
Mo80	 0.551120	 0.322452	 0.500000 
S81	 0.497458	 0.336830	 1.000000 
S82	 0.497458	 0.336830	 0.000000 
S83	 0.404511	 0.311926	 1.000000 
S84	 0.404511	 0.311926	 0.000000 
Mo85	 0.297186	 0.340683	 0.500000 
Mo86	 0.390133	 0.365588	 0.500000 
S87	 0.336470	 0.379967	 1.000000 
S88	 0.336470	 0.379967	 0.000000 
S89	 0.243524	 0.355062	 1.000000 
S90	 0.243524	 0.355062	 0.000000 
Mo91	 0.136199	 0.383820	 0.500000 
Mo92	 0.229145	 0.408725	 0.500000 
S93	 0.175482	 0.423103	 1.000000 
S94	 0.175482	 0.423103	 0.000000 
S95	 0.082536	 0.398199	 1.000000 
S96	 0.082536	 0.398199	 0.000000 
Mo97	 0.068157	 0.451861	 0.500000 
S98	 0.014495	 0.466240	 1.000000 
S99	 0.014495	 0.466240	 0.000000 
S100	 0.912379	 0.275462	 1.000000 
S101	 0.912379	 0.275462	 0.000000 
Mo102	 0.805054	 0.304220	 0.500000 
Mo103	 0.898000	 0.329125	 0.500000 
S104	 0.844338	 0.343504	 1.000000 
S105	 0.844338	 0.343504	 0.000000 
S106	 0.751392	 0.318599	 1.000000 
S107	 0.751392	 0.318599	 0.000000 
Mo108	 0.644066	 0.347356	 0.500000 
Mo109	 0.737013	 0.372261	 0.500000 
S110	 0.683350	 0.386640	 1.000000 
S111	 0.683350	 0.386640	 0.000000 
S112	 0.590404	 0.361735	 1.000000 
S113	 0.590404	 0.361735	 0.000000 
Mo114	 0.483079	 0.390493	 0.500000 
Mo115	 0.576025	 0.415398	 0.500000 
S116	 0.522363	 0.429777	 1.000000 
S117	 0.522363	 0.429777	 0.000000 
S118	 0.429416	 0.404872	 1.000000 
S119	 0.429416	 0.404872	 0.000000 
Mo120	 0.322091	 0.433630	 0.500000 
Mo121	 0.415037	 0.458534	 0.500000 
S122	 0.361375	 0.472913	 1.000000 
S123	 0.361375	 0.472913	 0.000000 
S124	 0.268429	 0.448008	 1.000000 
S125	 0.268429	 0.448008	 0.000000 
Mo126	 0.161104	 0.476766	 0.500000 
Mo127	 0.254050	 0.501671	 0.500000 
S128	 0.200387	 0.516050	 1.000000 
S129	 0.200387	 0.516050	 0.000000 
S130	 0.107441	 0.491145	 1.000000 
S131	 0.107441	 0.491145	 0.000000 
Mo132	 0.000116	 0.519903	 0.500000 
Mo133	 0.093062	 0.544807	 0.500000 
S134	 0.039400	 0.559186	 1.000000 
S135	 0.039400	 0.559186	 0.000000 
S136	 0.937284	 0.368409	 1.000000 
S137	 0.937284	 0.368409	 0.000000 
Mo138	 0.829959	 0.397166	 0.500000 
Mo139	 0.922905	 0.422071	 0.500000 
S140	 0.869243	 0.436450	 1.000000 
S141	 0.869243	 0.436450	 0.000000 
S142	 0.776296	 0.411545	 1.000000 
S143	 0.776296	 0.411545	 0.000000 
Mo144	 0.668971	 0.440303	 0.500000 
Mo145	 0.761918	 0.465208	 0.500000 
S146	 0.708255	 0.479586	 1.000000 
S147	 0.708255	 0.479586	 0.000000 
S148	 0.615309	 0.454682	 1.000000 
S149	 0.615309	 0.454682	 0.000000 
Mo150	 0.507984	 0.483439	 0.500000 
Mo151	 0.600930	 0.508344	 0.500000 
S152	 0.547267	 0.522723	 1.000000 
S153	 0.547267	 0.522723	 0.000000 
S154	 0.454321	 0.497818	 1.000000 
S155	 0.454321	 0.497818	 0.000000 
Mo156	 0.346996	 0.526576	 0.500000 
Mo157	 0.439942	 0.551481	 0.500000 
S158	 0.386280	 0.565859	 1.000000 
S159	 0.386280	 0.565859	 0.000000 
S160	 0.293333	 0.540955	 1.000000 
S161	 0.293333	 0.540955	 0.000000 
Mo162	 0.186008	 0.569712	 0.500000 
Mo163	 0.278955	 0.594617	 0.500000 
S164	 0.225292	 0.608996	 1.000000 
S165	 0.225292	 0.608996	 0.000000 
S166	 0.132346	 0.584091	 1.000000 
S167	 0.132346	 0.584091	 0.000000 
Mo168	 0.025021	 0.612849	 0.500000 
Mo169	 0.117967	 0.637754	 0.500000 
S170	 0.064304	 0.652132	 1.000000 
S171	 0.064304	 0.652132	 0.000000 
S172	 0.962189	 0.461355	 1.000000 
S173	 0.962189	 0.461355	 0.000000 
Mo174	 0.854864	 0.490112	 0.500000 
Mo175	 0.947810	 0.515017	 0.500000 
S176	 0.894148	 0.529396	 1.000000 
S177	 0.894148	 0.529396	 0.000000 
S178	 0.801201	 0.504491	 1.000000 
S179	 0.801201	 0.504491	 0.000000 
Mo180	 0.693876	 0.533249	 0.500000 
Mo181	 0.786822	 0.558154	 0.500000 
S182	 0.733160	 0.572533	 1.000000 
S183	 0.733160	 0.572533	 0.000000 
S184	 0.640214	 0.547628	 1.000000 
S185	 0.640214	 0.547628	 0.000000 
Mo186	 0.532889	 0.576386	 0.500000 
Mo187	 0.625835	 0.601290	 0.500000 
S188	 0.572172	 0.615669	 1.000000 
S189	 0.572172	 0.615669	 0.000000 
S190	 0.479226	 0.590764	 1.000000 
S191	 0.479226	 0.590764	 0.000000 
Mo192	 0.371901	 0.619522	 0.500000 
Mo193	 0.464847	 0.644427	 0.500000 
S194	 0.411185	 0.658806	 1.000000 
S195	 0.411185	 0.658806	 0.000000 
S196	 0.318238	 0.633901	 1.000000 
S197	 0.318238	 0.633901	 0.000000 
Mo198	 0.210913	 0.662659	 0.500000 
Mo199	 0.303860	 0.687563	 0.500000 
S200	 0.250197	 0.701942	 1.000000 
S201	 0.250197	 0.701942	 0.000000 
S202	 0.157251	 0.677037	 1.000000 
S203	 0.157251	 0.677037	 0.000000 
Mo204	 0.049926	 0.705795	 0.500000 
Mo205	 0.142872	 0.730700	 0.500000 
S206	 0.089209	 0.745079	 1.000000 
S207	 0.089209	 0.745079	 0.000000 
S208	 0.987094	 0.554301	 1.000000 
S209	 0.987094	 0.554301	 0.000000 
Mo210	 0.879769	 0.583059	 0.500000 
Mo211	 0.972715	 0.607964	 0.500000 
S212	 0.919052	 0.622342	 1.000000 
S213	 0.919052	 0.622342	 0.000000 
S214	 0.826106	 0.597438	 1.000000 
S215	 0.826106	 0.597438	 0.000000 
Mo216	 0.718781	 0.626195	 0.500000 
Mo217	 0.811727	 0.651100	 0.500000 
S218	 0.758065	 0.665479	 1.000000 
S219	 0.758065	 0.665479	 0.000000 
S220	 0.665119	 0.640574	 1.000000 
S221	 0.665119	 0.640574	 0.000000 
Mo222	 0.557793	 0.669332	 0.500000 
Mo223	 0.650740	 0.694237	 0.500000 
S224	 0.597077	 0.708615	 1.000000 
S225	 0.597077	 0.708615	 0.000000 
S226	 0.504131	 0.683711	 1.000000 
S227	 0.504131	 0.683711	 0.000000 
Mo228	 0.396806	 0.712468	 0.500000 
Mo229	 0.489752	 0.737373	 0.500000 
S230	 0.436089	 0.751752	 1.000000 
S231	 0.436089	 0.751752	 0.000000 
S232	 0.343143	 0.726847	 1.000000 
S233	 0.343143	 0.726847	 0.000000 
Mo234	 0.235818	 0.755605	 0.500000 
Mo235	 0.328764	 0.780510	 0.500000 
S236	 0.275102	 0.794888	 1.000000 
S237	 0.275102	 0.794888	 0.000000 
S238	 0.182156	 0.769984	 1.000000 
S239	 0.182156	 0.769984	 0.000000 
Mo240	 0.074831	 0.798741	 0.500000 
Mo241	 0.167777	 0.823646	 0.500000 
S242	 0.114114	 0.838025	 1.000000 
S243	 0.114114	 0.838025	 0.000000 
Mo244	 0.904674	 0.676005	 0.500000 
Mo245	 0.997620	 0.700910	 0.500000 
S246	 0.943957	 0.715289	 1.000000 
S247	 0.943957	 0.715289	 0.000000 
S248	 0.851011	 0.690384	 1.000000 
S249	 0.851011	 0.690384	 0.000000 
Mo250	 0.743686	 0.719142	 0.500000 
Mo251	 0.836632	 0.744046	 0.500000 
S252	 0.782970	 0.758425	 1.000000 
S253	 0.782970	 0.758425	 0.000000 
S254	 0.690023	 0.733520	 1.000000 
S255	 0.690023	 0.733520	 0.000000 
Mo256	 0.582698	 0.762278	 0.500000 
Mo257	 0.675645	 0.787183	 0.500000 
S258	 0.621982	 0.801562	 1.000000 
S259	 0.621982	 0.801562	 0.000000 
S260	 0.529036	 0.776657	 1.000000 
S261	 0.529036	 0.776657	 0.000000 
Mo262	 0.421711	 0.805415	 0.500000 
Mo263	 0.514657	 0.830319	 0.500000 
S264	 0.460994	 0.844698	 1.000000 
S265	 0.460994	 0.844698	 0.000000 
S266	 0.368048	 0.819793	 1.000000 
S267	 0.368048	 0.819793	 0.000000 
Mo268	 0.260723	 0.848551	 0.500000 
Mo269	 0.353669	 0.873456	 0.500000 
S270	 0.300007	 0.887835	 1.000000 
S271	 0.300007	 0.887835	 0.000000 
S272	 0.207060	 0.862930	 1.000000 
S273	 0.207060	 0.862930	 0.000000 
Mo274	 0.099735	 0.891688	 0.500000 
Mo275	 0.192682	 0.916592	 0.500000 
S276	 0.139019	 0.930971	 1.000000 
S277	 0.139019	 0.930971	 0.000000 
Mo278	 0.929578	 0.768951	 0.500000 
S279	 0.968862	 0.808235	 1.000000 
S280	 0.968862	 0.808235	 0.000000 
S281	 0.875916	 0.783330	 1.000000 
S282	 0.875916	 0.783330	 0.000000 
Mo283	 0.768591	 0.812088	 0.500000 
Mo284	 0.861537	 0.836993	 0.500000 
S285	 0.807875	 0.851371	 1.000000 
S286	 0.807875	 0.851371	 0.000000 
S287	 0.714928	 0.826467	 1.000000 
S288	 0.714928	 0.826467	 0.000000 
Mo289	 0.607603	 0.855224	 0.500000 
Mo290	 0.700549	 0.880129	 0.500000 
S291	 0.646887	 0.894508	 1.000000 
S292	 0.646887	 0.894508	 0.000000 
S293	 0.553941	 0.869603	 1.000000 
S294	 0.553941	 0.869603	 0.000000 
Mo295	 0.446616	 0.898361	 0.500000 
Mo296	 0.539562	 0.923266	 0.500000 
S297	 0.485899	 0.937644	 1.000000 
S298	 0.485899	 0.937644	 0.000000 
S299	 0.392953	 0.912740	 1.000000 
S300	 0.392953	 0.912740	 0.000000 
Mo301	 0.285628	 0.941497	 0.500000 
Mo302	 0.378574	 0.966402	 0.500000 
S303	 0.324912	 0.980781	 1.000000 
S304	 0.324912	 0.980781	 0.000000 
S305	 0.231965	 0.955876	 1.000000 
S306	 0.231965	 0.955876	 0.000000 
Mo307	 0.124640	 0.984634	 0.500000 
Mo308	 0.954483	 0.861898	 0.500000 
S309	 0.900821	 0.876276	 1.000000 
S310	 0.900821	 0.876276	 0.000000 
Mo311	 0.793496	 0.905034	 0.500000 
Mo312	 0.637393	 0.000476	 0.500000 
S313	 0.583731	 0.014855	 1.000000 
S314	 0.583731	 0.014855	 0.000000 
S315	 0.739833	 0.919413	 1.000000 
S316	 0.739833	 0.919413	 0.000000 
Mo317	 0.632508	 0.948171	 0.500000 
Mo318	 0.476406	 0.043613	 0.500000 
S319	 0.422743	 0.057992	 1.000000 
S320	 0.422743	 0.057992	 0.000000 
S321	 0.578845	 0.962549	 1.000000 
S322	 0.578845	 0.962549	 0.000000 
Mo323	 0.471520	 0.991307	 0.500000 
Mo324	 0.315418	 0.086749	 0.500000 
S325	 0.261755	 0.101128	 1.000000 
S326	 0.261755	 0.101128	 0.000000 
Mo327	 0.154430	 0.129886	 0.500000 
S328	 0.100768	 0.144265	 1.000000 
S329	 0.100768	 0.144265	 0.000000 
#                 ---end-of-data-block---
