data_Single Layer of MoS2nx 10 ny 6 nz 1
_cell_length_a               32.423991
_cell_length_b               32.423991
_cell_length_c               3.080000
_cell_angle_alpha          90.000000
_cell_angle_beta           90.000000
_cell_angle_gamma          90.000000
_symmetry_cell_setting          Triclinic
_symmetry_space_group_name_H-M 'P 1' 
loop_
_atom_site_label
_atom_site_fract_x
_atom_site_fract_y
_atom_site_fract_z
S1	 0.822513	 0.008917	 1.000000 
S2	 0.822513	 0.008917	 0.000000 
Mo3	 0.715188	 0.037675	 0.500000 
Mo4	 0.808134	 0.062580	 0.500000 
S5	 0.754471	 0.076959	 1.000000 
S6	 0.754471	 0.076959	 0.000000 
S7	 0.661525	 0.052054	 1.000000 
S8	 0.661525	 0.052054	 0.000000 
Mo9	 0.554200	 0.080811	 0.500000 
Mo10	 0.647146	 0.105716	 0.500000 
S11	 0.593484	 0.120095	 1.000000 
S12	 0.593484	 0.120095	 0.000000 
S13	 0.500537	 0.095190	 1.000000 
S14	 0.500537	 0.095190	 0.000000 
Mo15	 0.393212	 0.123948	 0.500000 
Mo16	 0.486159	 0.148853	 0.500000 
S17	 0.432496	 0.163232	 1.000000 
S18	 0.432496	 0.163232	 0.000000 
S19	 0.339550	 0.138327	 1.000000 
S20	 0.339550	 0.138327	 0.000000 
Mo21	 0.232225	 0.167085	 0.500000 
Mo22	 0.325171	 0.191989	 0.500000 
S23	 0.271508	 0.206368	 1.000000 
S24	 0.271508	 0.206368	 0.000000 
S25	 0.178562	 0.181463	 1.000000 
S26	 0.178562	 0.181463	 0.000000 
Mo27	 0.071237	 0.210221	 0.500000 
Mo28	 0.164183	 0.235126	 0.500000 
S29	 0.110521	 0.249505	 1.000000 
S30	 0.110521	 0.249505	 0.000000 
S31	 0.017574	 0.224600	 1.000000 
S32	 0.017574	 0.224600	 0.000000 
Mo33	 0.003196	 0.278262	 0.500000 
S34	 0.847418	 0.101864	 1.000000 
S35	 0.847418	 0.101864	 0.000000 
Mo36	 0.740092	 0.130621	 0.500000 
Mo37	 0.833039	 0.155526	 0.500000 
S38	 0.779376	 0.169905	 1.000000 
S39	 0.779376	 0.169905	 0.000000 
S40	 0.686430	 0.145000	 1.000000 
S41	 0.686430	 0.145000	 0.000000 
Mo42	 0.579105	 0.173758	 0.500000 
Mo43	 0.672051	 0.198663	 0.500000 
S44	 0.618389	 0.213041	 1.000000 
S45	 0.618389	 0.213041	 0.000000 
S46	 0.525442	 0.188137	 1.000000 
S47	 0.525442	 0.188137	 0.000000 
Mo48	 0.418117	 0.216894	 0.500000 
Mo49	 0.511063	 0.241799	 0.500000 
S50	 0.457401	 0.256178	 1.000000 
S51	 0.457401	 0.256178	 0.000000 
S52	 0.364455	 0.231273	 1.000000 
S53	 0.364455	 0.231273	 0.000000 
Mo54	 0.257130	 0.260031	 0.500000 
Mo55	 0.350076	 0.284936	 0.500000 
S56	 0.296413	 0.299314	 1.000000 
S57	 0.296413	 0.299314	 0.000000 
S58	 0.203467	 0.274410	 1.000000 
S59	 0.203467	 0.274410	 0.000000 
Mo60	 0.096142	 0.303167	 0.500000 
Mo61	 0.189088	 0.328072	 0.500000 
S62	 0.135426	 0.342451	 1.000000 
S63	 0.135426	 0.342451	 0.000000 
S64	 0.042479	 0.317546	 1.000000 
S65	 0.042479	 0.317546	 0.000000 
Mo66	 0.901080	 0.087485	 0.500000 
Mo67	 0.028101	 0.371209	 0.500000 
S68	 0.872322	 0.194810	 1.000000 
S69	 0.872322	 0.194810	 0.000000 
Mo70	 0.764997	 0.223567	 0.500000 
Mo71	 0.857944	 0.248472	 0.500000 
S72	 0.804281	 0.262851	 1.000000 
S73	 0.804281	 0.262851	 0.000000 
S74	 0.711335	 0.237946	 1.000000 
S75	 0.711335	 0.237946	 0.000000 
Mo76	 0.604010	 0.266704	 0.500000 
Mo77	 0.696956	 0.291609	 0.500000 
S78	 0.643293	 0.305988	 1.000000 
S79	 0.643293	 0.305988	 0.000000 
S80	 0.550347	 0.281083	 1.000000 
S81	 0.550347	 0.281083	 0.000000 
Mo82	 0.443022	 0.309841	 0.500000 
Mo83	 0.535968	 0.334745	 0.500000 
S84	 0.482306	 0.349124	 1.000000 
S85	 0.482306	 0.349124	 0.000000 
S86	 0.389360	 0.324219	 1.000000 
S87	 0.389360	 0.324219	 0.000000 
Mo88	 0.282034	 0.352977	 0.500000 
Mo89	 0.374981	 0.377882	 0.500000 
S90	 0.321318	 0.392261	 1.000000 
S91	 0.321318	 0.392261	 0.000000 
S92	 0.228372	 0.367356	 1.000000 
S93	 0.228372	 0.367356	 0.000000 
Mo94	 0.121047	 0.396114	 0.500000 
Mo95	 0.213993	 0.421018	 0.500000 
S96	 0.160331	 0.435397	 1.000000 
S97	 0.160331	 0.435397	 0.000000 
S98	 0.067384	 0.410492	 1.000000 
S99	 0.067384	 0.410492	 0.000000 
Mo100	 0.925985	 0.180431	 0.500000 
Mo101	 0.053005	 0.464155	 0.500000 
S102	 0.897227	 0.287756	 1.000000 
S103	 0.897227	 0.287756	 0.000000 
Mo104	 0.789902	 0.316514	 0.500000 
Mo105	 0.882848	 0.341419	 0.500000 
S106	 0.829186	 0.355797	 1.000000 
S107	 0.829186	 0.355797	 0.000000 
S108	 0.736240	 0.330893	 1.000000 
S109	 0.736240	 0.330893	 0.000000 
Mo110	 0.628915	 0.359650	 0.500000 
Mo111	 0.721861	 0.384555	 0.500000 
S112	 0.668198	 0.398934	 1.000000 
S113	 0.668198	 0.398934	 0.000000 
S114	 0.575252	 0.374029	 1.000000 
S115	 0.575252	 0.374029	 0.000000 
Mo116	 0.467927	 0.402787	 0.500000 
Mo117	 0.560873	 0.427692	 0.500000 
S118	 0.507211	 0.442070	 1.000000 
S119	 0.507211	 0.442070	 0.000000 
S120	 0.414264	 0.417166	 1.000000 
S121	 0.414264	 0.417166	 0.000000 
Mo122	 0.306939	 0.445923	 0.500000 
Mo123	 0.399886	 0.470828	 0.500000 
S124	 0.346223	 0.485207	 1.000000 
S125	 0.346223	 0.485207	 0.000000 
S126	 0.253277	 0.460302	 1.000000 
S127	 0.253277	 0.460302	 0.000000 
Mo128	 0.145952	 0.489060	 0.500000 
Mo129	 0.238898	 0.513965	 0.500000 
S130	 0.185235	 0.528343	 1.000000 
S131	 0.185235	 0.528343	 0.000000 
S132	 0.092289	 0.503439	 1.000000 
S133	 0.092289	 0.503439	 0.000000 
Mo134	 0.950890	 0.273377	 0.500000 
Mo135	 0.077910	 0.557101	 0.500000 
S136	 0.024248	 0.571480	 1.000000 
S137	 0.024248	 0.571480	 0.000000 
S138	 0.922132	 0.380702	 1.000000 
S139	 0.922132	 0.380702	 0.000000 
Mo140	 0.814807	 0.409460	 0.500000 
Mo141	 0.907753	 0.434365	 0.500000 
S142	 0.854091	 0.448744	 1.000000 
S143	 0.854091	 0.448744	 0.000000 
S144	 0.761145	 0.423839	 1.000000 
S145	 0.761145	 0.423839	 0.000000 
Mo146	 0.653819	 0.452597	 0.500000 
Mo147	 0.746766	 0.477501	 0.500000 
S148	 0.693103	 0.491880	 1.000000 
S149	 0.693103	 0.491880	 0.000000 
S150	 0.600157	 0.466975	 1.000000 
S151	 0.600157	 0.466975	 0.000000 
Mo152	 0.492832	 0.495733	 0.500000 
Mo153	 0.585778	 0.520638	 0.500000 
S154	 0.532116	 0.535017	 1.000000 
S155	 0.532116	 0.535017	 0.000000 
S156	 0.439169	 0.510112	 1.000000 
S157	 0.439169	 0.510112	 0.000000 
Mo158	 0.331844	 0.538870	 0.500000 
Mo159	 0.424790	 0.563774	 0.500000 
S160	 0.371128	 0.578153	 1.000000 
S161	 0.371128	 0.578153	 0.000000 
S162	 0.278182	 0.553248	 1.000000 
S163	 0.278182	 0.553248	 0.000000 
Mo164	 0.170857	 0.582006	 0.500000 
Mo165	 0.263803	 0.606911	 0.500000 
S166	 0.210140	 0.621290	 1.000000 
S167	 0.210140	 0.621290	 0.000000 
S168	 0.117194	 0.596385	 1.000000 
S169	 0.117194	 0.596385	 0.000000 
Mo170	 0.975795	 0.366323	 0.500000 
Mo171	 0.102815	 0.650047	 0.500000 
S172	 0.049153	 0.664426	 1.000000 
S173	 0.049153	 0.664426	 0.000000 
S174	 0.947037	 0.473649	 1.000000 
S175	 0.947037	 0.473649	 0.000000 
Mo176	 0.839712	 0.502406	 0.500000 
Mo177	 0.932658	 0.527311	 0.500000 
S178	 0.878996	 0.541690	 1.000000 
S179	 0.878996	 0.541690	 0.000000 
S180	 0.786049	 0.516785	 1.000000 
S181	 0.786049	 0.516785	 0.000000 
Mo182	 0.678724	 0.545543	 0.500000 
Mo183	 0.771671	 0.570448	 0.500000 
S184	 0.718008	 0.584826	 1.000000 
S185	 0.718008	 0.584826	 0.000000 
S186	 0.625062	 0.559922	 1.000000 
S187	 0.625062	 0.559922	 0.000000 
Mo188	 0.517737	 0.588679	 0.500000 
Mo189	 0.610683	 0.613584	 0.500000 
S190	 0.557020	 0.627963	 1.000000 
S191	 0.557020	 0.627963	 0.000000 
S192	 0.464074	 0.603058	 1.000000 
S193	 0.464074	 0.603058	 0.000000 
Mo194	 0.356749	 0.631816	 0.500000 
Mo195	 0.449695	 0.656721	 0.500000 
S196	 0.396033	 0.671099	 1.000000 
S197	 0.396033	 0.671099	 0.000000 
S198	 0.303087	 0.646195	 1.000000 
S199	 0.303087	 0.646195	 0.000000 
Mo200	 0.195761	 0.674952	 0.500000 
Mo201	 0.288708	 0.699857	 0.500000 
S202	 0.235045	 0.714236	 1.000000 
S203	 0.235045	 0.714236	 0.000000 
S204	 0.142099	 0.689331	 1.000000 
S205	 0.142099	 0.689331	 0.000000 
Mo206	 0.127720	 0.742994	 0.500000 
S207	 0.074057	 0.757373	 1.000000 
S208	 0.074057	 0.757373	 0.000000 
S209	 0.971942	 0.566595	 1.000000 
S210	 0.971942	 0.566595	 0.000000 
Mo211	 0.864617	 0.595353	 0.500000 
Mo212	 0.957563	 0.620257	 0.500000 
S213	 0.903901	 0.634636	 1.000000 
S214	 0.903901	 0.634636	 0.000000 
S215	 0.810954	 0.609731	 1.000000 
S216	 0.810954	 0.609731	 0.000000 
Mo217	 0.703629	 0.638489	 0.500000 
Mo218	 0.796575	 0.663394	 0.500000 
S219	 0.742913	 0.677773	 1.000000 
S220	 0.742913	 0.677773	 0.000000 
S221	 0.649967	 0.652868	 1.000000 
S222	 0.649967	 0.652868	 0.000000 
Mo223	 0.542642	 0.681626	 0.500000 
Mo224	 0.635588	 0.706530	 0.500000 
S225	 0.581925	 0.720909	 1.000000 
S226	 0.581925	 0.720909	 0.000000 
S227	 0.488979	 0.696004	 1.000000 
S228	 0.488979	 0.696004	 0.000000 
Mo229	 0.381654	 0.724762	 0.500000 
Mo230	 0.474600	 0.749667	 0.500000 
S231	 0.420938	 0.764046	 1.000000 
S232	 0.420938	 0.764046	 0.000000 
S233	 0.327991	 0.739141	 1.000000 
S234	 0.327991	 0.739141	 0.000000 
Mo235	 0.220666	 0.767899	 0.500000 
Mo236	 0.313613	 0.792803	 0.500000 
S237	 0.259950	 0.807182	 1.000000 
S238	 0.259950	 0.807182	 0.000000 
S239	 0.167004	 0.782277	 1.000000 
S240	 0.167004	 0.782277	 0.000000 
Mo241	 0.152625	 0.835940	 0.500000 
S242	 0.098962	 0.850319	 1.000000 
S243	 0.098962	 0.850319	 0.000000 
S244	 0.996847	 0.659541	 1.000000 
S245	 0.996847	 0.659541	 0.000000 
Mo246	 0.889522	 0.688299	 0.500000 
Mo247	 0.982468	 0.713204	 0.500000 
S248	 0.928805	 0.727582	 1.000000 
S249	 0.928805	 0.727582	 0.000000 
S250	 0.835859	 0.702678	 1.000000 
S251	 0.835859	 0.702678	 0.000000 
Mo252	 0.728534	 0.731435	 0.500000 
Mo253	 0.821480	 0.756340	 0.500000 
S254	 0.767818	 0.770719	 1.000000 
S255	 0.767818	 0.770719	 0.000000 
S256	 0.674872	 0.745814	 1.000000 
S257	 0.674872	 0.745814	 0.000000 
Mo258	 0.567546	 0.774572	 0.500000 
Mo259	 0.660493	 0.799477	 0.500000 
S260	 0.606830	 0.813855	 1.000000 
S261	 0.606830	 0.813855	 0.000000 
S262	 0.513884	 0.788951	 1.000000 
S263	 0.513884	 0.788951	 0.000000 
Mo264	 0.406559	 0.817708	 0.500000 
Mo265	 0.499505	 0.842613	 0.500000 
S266	 0.445843	 0.856992	 1.000000 
S267	 0.445843	 0.856992	 0.000000 
S268	 0.352896	 0.832087	 1.000000 
S269	 0.352896	 0.832087	 0.000000 
Mo270	 0.245571	 0.860845	 0.500000 
Mo271	 0.338517	 0.885750	 0.500000 
S272	 0.284855	 0.900129	 1.000000 
S273	 0.284855	 0.900129	 0.000000 
S274	 0.191909	 0.875224	 1.000000 
S275	 0.191909	 0.875224	 0.000000 
Mo276	 0.177530	 0.928886	 0.500000 
S277	 0.123867	 0.943265	 1.000000 
S278	 0.123867	 0.943265	 0.000000 
Mo279	 0.914427	 0.781245	 0.500000 
S280	 0.953710	 0.820529	 1.000000 
S281	 0.953710	 0.820529	 0.000000 
S282	 0.860764	 0.795624	 1.000000 
S283	 0.860764	 0.795624	 0.000000 
Mo284	 0.753439	 0.824382	 0.500000 
Mo285	 0.846385	 0.849286	 0.500000 
S286	 0.792723	 0.863665	 1.000000 
S287	 0.792723	 0.863665	 0.000000 
S288	 0.699776	 0.838760	 1.000000 
S289	 0.699776	 0.838760	 0.000000 
Mo290	 0.592451	 0.867518	 0.500000 
Mo291	 0.685398	 0.892423	 0.500000 
S292	 0.631735	 0.906802	 1.000000 
S293	 0.631735	 0.906802	 0.000000 
S294	 0.538789	 0.881897	 1.000000 
S295	 0.538789	 0.881897	 0.000000 
Mo296	 0.431464	 0.910655	 0.500000 
Mo297	 0.524410	 0.935559	 0.500000 
S298	 0.470747	 0.949938	 1.000000 
S299	 0.470747	 0.949938	 0.000000 
S300	 0.377801	 0.925033	 1.000000 
S301	 0.377801	 0.925033	 0.000000 
Mo302	 0.270476	 0.953791	 0.500000 
Mo303	 0.363422	 0.978696	 0.500000 
S304	 0.309760	 0.993075	 1.000000 
S305	 0.309760	 0.993075	 0.000000 
S306	 0.216813	 0.968170	 1.000000 
S307	 0.216813	 0.968170	 0.000000 
Mo308	 0.939331	 0.874191	 0.500000 
S309	 0.885669	 0.888570	 1.000000 
S310	 0.885669	 0.888570	 0.000000 
Mo311	 0.778344	 0.917328	 0.500000 
Mo312	 0.622241	 0.012770	 0.500000 
S313	 0.568579	 0.027149	 1.000000 
S314	 0.568579	 0.027149	 0.000000 
S315	 0.724681	 0.931707	 1.000000 
S316	 0.724681	 0.931707	 0.000000 
Mo317	 0.617356	 0.960464	 0.500000 
Mo318	 0.461254	 0.055907	 0.500000 
S319	 0.407591	 0.070285	 1.000000 
S320	 0.407591	 0.070285	 0.000000 
S321	 0.563694	 0.974843	 1.000000 
S322	 0.563694	 0.974843	 0.000000 
Mo323	 0.300266	 0.099043	 0.500000 
S324	 0.246604	 0.113422	 1.000000 
S325	 0.246604	 0.113422	 0.000000 
Mo326	 0.139278	 0.142180	 0.500000 
S327	 0.085616	 0.156558	 1.000000 
S328	 0.085616	 0.156558	 0.000000 
#                 ---end-of-data-block---
