data_NiO [110] nx 6 ny 2 nz 1
_cell_length_a               30.187800
_cell_length_b               30.187800
_cell_length_c               2.866200
_cell_angle_alpha          90.000000
_cell_angle_beta           90.000000
_cell_angle_gamma          90.000000
_symmetry_cell_setting          Triclinic
_symmetry_space_group_name_H-M 'P 1' 
loop_
_atom_site_label
_atom_site_fract_x
_atom_site_fract_y
_atom_site_fract_z
Mn1	 0.361536	 0.063049	 0.000000 
Mn2	 0.346130	 0.143816	 0.500000 
Mn3	 0.186388	 0.141250	 0.000000 
Mn4	 0.155578	 0.302789	 0.000000 
Mn5	 0.170982	 0.222022	 0.500000 
Mn6	 0.140173	 0.383557	 0.500000 
Mn7	 0.128594	 0.466516	 0.000000 
Mn8	 0.113188	 0.547283	 0.500000 
Mn9	 0.505873	 0.146382	 0.000000 
Mn10	 0.490468	 0.227149	 0.500000 
Mn11	 0.330726	 0.224583	 0.000000 
Mn12	 0.299915	 0.386122	 0.000000 
Mn13	 0.315319	 0.305355	 0.500000 
Mn14	 0.284511	 0.466890	 0.500000 
Mn15	 0.272931	 0.549849	 0.000000 
Mn16	 0.257526	 0.630616	 0.500000 
Mn17	 0.097784	 0.628050	 0.000000 
Mn18	 0.082378	 0.708822	 0.500000 
Mn19	 0.517453	 0.063423	 0.500000 
Mn20	 0.650211	 0.229716	 0.000000 
Mn21	 0.634805	 0.310482	 0.500000 
Mn22	 0.475063	 0.307917	 0.000000 
Mn23	 0.444253	 0.469456	 0.000000 
Mn24	 0.459657	 0.388688	 0.500000 
Mn25	 0.428849	 0.550223	 0.500000 
Mn26	 0.417269	 0.633183	 0.000000 
Mn27	 0.401863	 0.713950	 0.500000 
Mn28	 0.242122	 0.711384	 0.000000 
Mn29	 0.677194	 0.065989	 0.000000 
Mn30	 0.226715	 0.792155	 0.500000 
Mn31	 0.661790	 0.146756	 0.500000 
Mn32	 0.794548	 0.313049	 0.000000 
Mn33	 0.779143	 0.393816	 0.500000 
Mn34	 0.619401	 0.391250	 0.000000 
Mn35	 0.588590	 0.552789	 0.000000 
Mn36	 0.603994	 0.472022	 0.500000 
Mn37	 0.573186	 0.633557	 0.500000 
Mn38	 0.561607	 0.716516	 0.000000 
Mn39	 0.546201	 0.797283	 0.500000 
Mn40	 0.386459	 0.794717	 0.000000 
Mn41	 0.821532	 0.149322	 0.000000 
Mn42	 0.371053	 0.875489	 0.500000 
Mn43	 0.806128	 0.230090	 0.500000 
Mn44	 0.938886	 0.396382	 0.000000 
Mn45	 0.923480	 0.477149	 0.500000 
Mn46	 0.763739	 0.474583	 0.000000 
Mn47	 0.732928	 0.636122	 0.000000 
Mn48	 0.748332	 0.555355	 0.500000 
Mn49	 0.717524	 0.716890	 0.500000 
Mn50	 0.705944	 0.799849	 0.000000 
Mn51	 0.690539	 0.880616	 0.500000 
Mn52	 0.530797	 0.878050	 0.000000 
Mn53	 0.965870	 0.232655	 0.000000 
Mn54	 0.515390	 0.958822	 0.500000 
Mn55	 0.950465	 0.313423	 0.500000 
Mn56	 0.201792	 0.060482	 0.500000 
Mn57	 0.908076	 0.557917	 0.000000 
Mn58	 0.877265	 0.719456	 0.000000 
Mn59	 0.892670	 0.638688	 0.500000 
Mn60	 0.861861	 0.800223	 0.500000 
Mn61	 0.850282	 0.883183	 0.000000 
Mn62	 0.675134	 0.961384	 0.000000 
#                 ---end-of-data-block---
