data_Pt structure along [001] nx 8 ny 8 nz 1
_cell_length_a               31.360000
_cell_length_b               31.360000
_cell_length_c               3.920000
_cell_angle_alpha          90.000000
_cell_angle_beta           90.000000
_cell_angle_gamma          90.000000
_symmetry_cell_setting          Triclinic
_symmetry_space_group_name_H-M 'P 1' 
loop_
_atom_site_label
_atom_site_fract_x
_atom_site_fract_y
_atom_site_fract_z
Pt1	 0.192461	 0.018403	 0.000000 
Pt2	 0.132091	 0.002227	 0.500000 
Pt3	 0.115914	 0.062597	 0.000000 
Pt4	 0.160109	 0.139144	 0.000000 
Pt5	 0.176285	 0.078774	 0.500000 
Pt6	 0.099738	 0.122968	 0.500000 
Pt7	 0.083562	 0.183338	 0.000000 
Pt8	 0.127756	 0.259885	 0.000000 
Pt9	 0.143932	 0.199514	 0.500000 
Pt10	 0.067386	 0.243709	 0.500000 
Pt11	 0.051210	 0.304079	 0.000000 
Pt12	 0.095404	 0.380625	 0.000000 
Pt13	 0.111580	 0.320255	 0.500000 
Pt14	 0.035033	 0.364449	 0.500000 
Pt15	 0.018857	 0.424820	 0.000000 
Pt16	 0.063051	 0.501366	 0.000000 
Pt17	 0.079228	 0.440996	 0.500000 
Pt18	 0.002681	 0.485190	 0.500000 
Pt19	 0.030699	 0.622107	 0.000000 
Pt20	 0.046875	 0.561737	 0.500000 
Pt21	 0.014523	 0.682477	 0.500000 
Pt22	 0.313202	 0.050756	 0.000000 
Pt23	 0.252831	 0.034580	 0.500000 
Pt24	 0.236655	 0.094950	 0.000000 
Pt25	 0.280849	 0.171496	 0.000000 
Pt26	 0.297025	 0.111126	 0.500000 
Pt27	 0.220479	 0.155320	 0.500000 
Pt28	 0.204303	 0.215691	 0.000000 
Pt29	 0.248497	 0.292237	 0.000000 
Pt30	 0.264673	 0.231867	 0.500000 
Pt31	 0.188127	 0.276061	 0.500000 
Pt32	 0.171950	 0.336431	 0.000000 
Pt33	 0.216145	 0.412978	 0.000000 
Pt34	 0.232321	 0.352608	 0.500000 
Pt35	 0.155774	 0.396802	 0.500000 
Pt36	 0.139598	 0.457172	 0.000000 
Pt37	 0.183792	 0.533719	 0.000000 
Pt38	 0.199968	 0.473348	 0.500000 
Pt39	 0.123422	 0.517542	 0.500000 
Pt40	 0.107246	 0.577913	 0.000000 
Pt41	 0.151440	 0.654459	 0.000000 
Pt42	 0.167616	 0.594089	 0.500000 
Pt43	 0.091069	 0.638283	 0.500000 
Pt44	 0.074893	 0.698654	 0.000000 
Pt45	 0.119087	 0.775200	 0.000000 
Pt46	 0.135264	 0.714830	 0.500000 
Pt47	 0.058717	 0.759024	 0.500000 
Pt48	 0.042541	 0.819394	 0.000000 
Pt49	 0.086735	 0.895941	 0.000000 
Pt50	 0.102911	 0.835570	 0.500000 
Pt51	 0.026365	 0.879765	 0.500000 
Pt52	 0.389748	 0.006562	 0.000000 
Pt53	 0.433942	 0.083108	 0.000000 
Pt54	 0.450119	 0.022738	 0.500000 
Pt55	 0.373572	 0.066932	 0.500000 
Pt56	 0.357396	 0.127302	 0.000000 
Pt57	 0.401590	 0.203849	 0.000000 
Pt58	 0.417766	 0.143478	 0.500000 
Pt59	 0.341220	 0.187673	 0.500000 
Pt60	 0.325043	 0.248043	 0.000000 
Pt61	 0.369238	 0.324590	 0.000000 
Pt62	 0.385414	 0.264219	 0.500000 
Pt63	 0.308867	 0.308413	 0.500000 
Pt64	 0.292691	 0.368784	 0.000000 
Pt65	 0.336885	 0.445330	 0.000000 
Pt66	 0.353061	 0.384960	 0.500000 
Pt67	 0.276515	 0.429154	 0.500000 
Pt68	 0.260339	 0.489524	 0.000000 
Pt69	 0.304533	 0.566071	 0.000000 
Pt70	 0.320709	 0.505701	 0.500000 
Pt71	 0.244163	 0.549895	 0.500000 
Pt72	 0.227986	 0.610265	 0.000000 
Pt73	 0.272181	 0.686812	 0.000000 
Pt74	 0.288357	 0.626441	 0.500000 
Pt75	 0.211810	 0.670636	 0.500000 
Pt76	 0.195634	 0.731006	 0.000000 
Pt77	 0.239828	 0.807552	 0.000000 
Pt78	 0.256004	 0.747182	 0.500000 
Pt79	 0.179458	 0.791376	 0.500000 
Pt80	 0.163282	 0.851747	 0.000000 
Pt81	 0.207476	 0.928293	 0.000000 
Pt82	 0.223652	 0.867923	 0.500000 
Pt83	 0.147105	 0.912117	 0.500000 
Pt84	 0.510489	 0.038914	 0.000000 
Pt85	 0.554683	 0.115460	 0.000000 
Pt86	 0.570859	 0.055090	 0.500000 
Pt87	 0.494313	 0.099284	 0.500000 
Pt88	 0.478137	 0.159655	 0.000000 
Pt89	 0.522331	 0.236201	 0.000000 
Pt90	 0.538507	 0.175831	 0.500000 
Pt91	 0.461960	 0.220025	 0.500000 
Pt92	 0.445784	 0.280395	 0.000000 
Pt93	 0.489978	 0.356942	 0.000000 
Pt94	 0.506155	 0.296572	 0.500000 
Pt95	 0.429608	 0.340766	 0.500000 
Pt96	 0.413432	 0.401136	 0.000000 
Pt97	 0.457626	 0.477683	 0.000000 
Pt98	 0.473802	 0.417312	 0.500000 
Pt99	 0.397256	 0.461506	 0.500000 
Pt100	 0.381079	 0.521877	 0.000000 
Pt101	 0.425274	 0.598423	 0.000000 
Pt102	 0.441450	 0.538053	 0.500000 
Pt103	 0.364903	 0.582247	 0.500000 
Pt104	 0.348727	 0.642618	 0.000000 
Pt105	 0.392921	 0.719164	 0.000000 
Pt106	 0.409097	 0.658794	 0.500000 
Pt107	 0.332551	 0.702988	 0.500000 
Pt108	 0.316375	 0.763358	 0.000000 
Pt109	 0.360569	 0.839905	 0.000000 
Pt110	 0.376745	 0.779534	 0.500000 
Pt111	 0.300198	 0.823729	 0.500000 
Pt112	 0.284022	 0.884099	 0.000000 
Pt113	 0.328216	 0.960646	 0.000000 
Pt114	 0.344393	 0.900275	 0.500000 
Pt115	 0.267846	 0.944469	 0.500000 
Pt116	 0.631230	 0.071266	 0.000000 
Pt117	 0.675424	 0.147813	 0.000000 
Pt118	 0.691600	 0.087442	 0.500000 
Pt119	 0.615054	 0.131637	 0.500000 
Pt120	 0.598877	 0.192007	 0.000000 
Pt121	 0.643071	 0.268554	 0.000000 
Pt122	 0.659248	 0.208183	 0.500000 
Pt123	 0.582701	 0.252377	 0.500000 
Pt124	 0.566525	 0.312748	 0.000000 
Pt125	 0.610719	 0.389294	 0.000000 
Pt126	 0.626895	 0.328924	 0.500000 
Pt127	 0.550349	 0.373118	 0.500000 
Pt128	 0.534173	 0.433488	 0.000000 
Pt129	 0.578367	 0.510035	 0.000000 
Pt130	 0.594543	 0.449665	 0.500000 
Pt131	 0.517996	 0.493859	 0.500000 
Pt132	 0.501820	 0.554229	 0.000000 
Pt133	 0.546014	 0.630776	 0.000000 
Pt134	 0.562191	 0.570405	 0.500000 
Pt135	 0.485644	 0.614600	 0.500000 
Pt136	 0.469468	 0.674970	 0.000000 
Pt137	 0.513662	 0.751516	 0.000000 
Pt138	 0.529838	 0.691146	 0.500000 
Pt139	 0.453292	 0.735340	 0.500000 
Pt140	 0.437115	 0.795711	 0.000000 
Pt141	 0.481310	 0.872257	 0.000000 
Pt142	 0.497486	 0.811887	 0.500000 
Pt143	 0.420939	 0.856081	 0.500000 
Pt144	 0.404763	 0.916451	 0.000000 
Pt145	 0.448957	 0.992998	 0.000000 
Pt146	 0.465133	 0.932628	 0.500000 
Pt147	 0.388587	 0.976822	 0.500000 
Pt148	 0.751970	 0.103619	 0.000000 
Pt149	 0.796165	 0.180165	 0.000000 
Pt150	 0.812341	 0.119795	 0.500000 
Pt151	 0.735794	 0.163989	 0.500000 
Pt152	 0.719618	 0.224359	 0.000000 
Pt153	 0.763812	 0.300906	 0.000000 
Pt154	 0.779988	 0.240536	 0.500000 
Pt155	 0.703442	 0.284730	 0.500000 
Pt156	 0.687266	 0.345100	 0.000000 
Pt157	 0.731460	 0.421647	 0.000000 
Pt158	 0.747636	 0.361276	 0.500000 
Pt159	 0.671089	 0.405470	 0.500000 
Pt160	 0.654913	 0.465841	 0.000000 
Pt161	 0.699107	 0.542387	 0.000000 
Pt162	 0.715284	 0.482017	 0.500000 
Pt163	 0.638737	 0.526211	 0.500000 
Pt164	 0.622561	 0.586582	 0.000000 
Pt165	 0.666755	 0.663128	 0.000000 
Pt166	 0.682931	 0.602758	 0.500000 
Pt167	 0.606385	 0.646952	 0.500000 
Pt168	 0.590209	 0.707322	 0.000000 
Pt169	 0.634403	 0.783869	 0.000000 
Pt170	 0.650579	 0.723498	 0.500000 
Pt171	 0.574032	 0.767693	 0.500000 
Pt172	 0.557856	 0.828063	 0.000000 
Pt173	 0.602050	 0.904610	 0.000000 
Pt174	 0.618227	 0.844239	 0.500000 
Pt175	 0.541680	 0.888433	 0.500000 
Pt176	 0.525504	 0.948804	 0.000000 
Pt177	 0.585874	 0.964980	 0.500000 
Pt178	 0.872711	 0.135971	 0.000000 
Pt179	 0.916905	 0.212518	 0.000000 
Pt180	 0.933082	 0.152147	 0.500000 
Pt181	 0.856535	 0.196341	 0.500000 
Pt182	 0.840359	 0.256712	 0.000000 
Pt183	 0.884553	 0.333258	 0.000000 
Pt184	 0.900729	 0.272888	 0.500000 
Pt185	 0.824183	 0.317082	 0.500000 
Pt186	 0.808006	 0.377452	 0.000000 
Pt187	 0.852201	 0.453999	 0.000000 
Pt188	 0.868377	 0.393629	 0.500000 
Pt189	 0.791830	 0.437823	 0.500000 
Pt190	 0.775654	 0.498193	 0.000000 
Pt191	 0.819848	 0.574740	 0.000000 
Pt192	 0.836024	 0.514369	 0.500000 
Pt193	 0.759478	 0.558564	 0.500000 
Pt194	 0.743302	 0.618934	 0.000000 
Pt195	 0.787496	 0.695481	 0.000000 
Pt196	 0.803672	 0.635110	 0.500000 
Pt197	 0.727125	 0.679304	 0.500000 
Pt198	 0.710949	 0.739675	 0.000000 
Pt199	 0.755143	 0.816221	 0.000000 
Pt200	 0.771320	 0.755851	 0.500000 
Pt201	 0.694773	 0.800045	 0.500000 
Pt202	 0.678597	 0.860415	 0.000000 
Pt203	 0.722791	 0.936962	 0.000000 
Pt204	 0.738967	 0.876592	 0.500000 
Pt205	 0.662421	 0.920786	 0.500000 
Pt206	 0.646244	 0.981156	 0.000000 
Pt207	 0.706615	 0.997332	 0.500000 
Pt208	 0.993452	 0.168323	 0.000000 
Pt209	 0.977276	 0.228694	 0.500000 
Pt210	 0.961100	 0.289064	 0.000000 
Pt211	 0.944923	 0.349435	 0.500000 
Pt212	 0.928747	 0.409805	 0.000000 
Pt213	 0.972941	 0.486351	 0.000000 
Pt214	 0.989117	 0.425981	 0.500000 
Pt215	 0.912571	 0.470175	 0.500000 
Pt216	 0.896395	 0.530546	 0.000000 
Pt217	 0.940589	 0.607092	 0.000000 
Pt218	 0.956765	 0.546722	 0.500000 
Pt219	 0.880219	 0.590916	 0.500000 
Pt220	 0.864042	 0.651286	 0.000000 
Pt221	 0.908237	 0.727833	 0.000000 
Pt222	 0.924413	 0.667463	 0.500000 
Pt223	 0.847866	 0.711657	 0.500000 
Pt224	 0.831690	 0.772027	 0.000000 
Pt225	 0.875884	 0.848574	 0.000000 
Pt226	 0.892060	 0.788203	 0.500000 
Pt227	 0.815514	 0.832397	 0.500000 
Pt228	 0.799338	 0.892768	 0.000000 
Pt229	 0.843532	 0.969314	 0.000000 
Pt230	 0.859708	 0.908944	 0.500000 
Pt231	 0.783161	 0.953138	 0.500000 
#                 ---end-of-data-block---
