data_Pt structure along [001] nx 8 ny 8 nz 1
_cell_length_a               31.360000
_cell_length_b               31.360000
_cell_length_c               3.920000
_cell_angle_alpha          90.000000
_cell_angle_beta           90.000000
_cell_angle_gamma          90.000000
_symmetry_cell_setting          Triclinic
_symmetry_space_group_name_H-M 'P 1' 
loop_
_atom_site_label
_atom_site_fract_x
_atom_site_fract_y
_atom_site_fract_z
Pt1	 0.380836	 0.074070	 0.000000 
Pt2	 0.412086	 0.019944	 0.500000 
Pt3	 0.326710	 0.042820	 0.500000 
Pt4	 0.295460	 0.096947	 0.000000 
Pt5	 0.318336	 0.182323	 0.000000 
Pt6	 0.349586	 0.128197	 0.500000 
Pt7	 0.264210	 0.151073	 0.500000 
Pt8	 0.232960	 0.205200	 0.000000 
Pt9	 0.255836	 0.290577	 0.000000 
Pt10	 0.287086	 0.236450	 0.500000 
Pt11	 0.201710	 0.259327	 0.500000 
Pt12	 0.170460	 0.313453	 0.000000 
Pt13	 0.193336	 0.398830	 0.000000 
Pt14	 0.224586	 0.344703	 0.500000 
Pt15	 0.139210	 0.367580	 0.500000 
Pt16	 0.107960	 0.421706	 0.000000 
Pt17	 0.130836	 0.507083	 0.000000 
Pt18	 0.162086	 0.452956	 0.500000 
Pt19	 0.076710	 0.475833	 0.500000 
Pt20	 0.045460	 0.529960	 0.000000 
Pt21	 0.068336	 0.615336	 0.000000 
Pt22	 0.099586	 0.561210	 0.500000 
Pt23	 0.014210	 0.584086	 0.500000 
Pt24	 0.005836	 0.723589	 0.000000 
Pt25	 0.037086	 0.669463	 0.500000 
Pt26	 0.551590	 0.028317	 0.000000 
Pt27	 0.466213	 0.051194	 0.000000 
Pt28	 0.489090	 0.136570	 0.000000 
Pt29	 0.520340	 0.082444	 0.500000 
Pt30	 0.434963	 0.105320	 0.500000 
Pt31	 0.403713	 0.159447	 0.000000 
Pt32	 0.426590	 0.244823	 0.000000 
Pt33	 0.457840	 0.190697	 0.500000 
Pt34	 0.372463	 0.213573	 0.500000 
Pt35	 0.341213	 0.267700	 0.000000 
Pt36	 0.364090	 0.353077	 0.000000 
Pt37	 0.395340	 0.298950	 0.500000 
Pt38	 0.309963	 0.321827	 0.500000 
Pt39	 0.278713	 0.375953	 0.000000 
Pt40	 0.301590	 0.461330	 0.000000 
Pt41	 0.332840	 0.407203	 0.500000 
Pt42	 0.247463	 0.430080	 0.500000 
Pt43	 0.216213	 0.484206	 0.000000 
Pt44	 0.239090	 0.569583	 0.000000 
Pt45	 0.270340	 0.515456	 0.500000 
Pt46	 0.184963	 0.538333	 0.500000 
Pt47	 0.153713	 0.592460	 0.000000 
Pt48	 0.176590	 0.677836	 0.000000 
Pt49	 0.207840	 0.623710	 0.500000 
Pt50	 0.122463	 0.646586	 0.500000 
Pt51	 0.091213	 0.700713	 0.000000 
Pt52	 0.114090	 0.786089	 0.000000 
Pt53	 0.145340	 0.731963	 0.500000 
Pt54	 0.059963	 0.754839	 0.500000 
Pt55	 0.636966	 0.005441	 0.000000 
Pt56	 0.659843	 0.090817	 0.000000 
Pt57	 0.691093	 0.036691	 0.500000 
Pt58	 0.605716	 0.059567	 0.500000 
Pt59	 0.574466	 0.113694	 0.000000 
Pt60	 0.597343	 0.199070	 0.000000 
Pt61	 0.628593	 0.144944	 0.500000 
Pt62	 0.543216	 0.167820	 0.500000 
Pt63	 0.511966	 0.221947	 0.000000 
Pt64	 0.534843	 0.307323	 0.000000 
Pt65	 0.566093	 0.253197	 0.500000 
Pt66	 0.480716	 0.276073	 0.500000 
Pt67	 0.449466	 0.330200	 0.000000 
Pt68	 0.472343	 0.415577	 0.000000 
Pt69	 0.503593	 0.361450	 0.500000 
Pt70	 0.418216	 0.384327	 0.500000 
Pt71	 0.386966	 0.438453	 0.000000 
Pt72	 0.409843	 0.523830	 0.000000 
Pt73	 0.441093	 0.469703	 0.500000 
Pt74	 0.355716	 0.492580	 0.500000 
Pt75	 0.324466	 0.546706	 0.000000 
Pt76	 0.347343	 0.632083	 0.000000 
Pt77	 0.378593	 0.577956	 0.500000 
Pt78	 0.293216	 0.600833	 0.500000 
Pt79	 0.261966	 0.654960	 0.000000 
Pt80	 0.284843	 0.740336	 0.000000 
Pt81	 0.316093	 0.686210	 0.500000 
Pt82	 0.230716	 0.709086	 0.500000 
Pt83	 0.199466	 0.763213	 0.000000 
Pt84	 0.222343	 0.848589	 0.000000 
Pt85	 0.253593	 0.794463	 0.500000 
Pt86	 0.168216	 0.817339	 0.500000 
Pt87	 0.745219	 0.067941	 0.000000 
Pt88	 0.768096	 0.153317	 0.000000 
Pt89	 0.799346	 0.099191	 0.500000 
Pt90	 0.713969	 0.122067	 0.500000 
Pt91	 0.682719	 0.176194	 0.000000 
Pt92	 0.705596	 0.261570	 0.000000 
Pt93	 0.736846	 0.207444	 0.500000 
Pt94	 0.651469	 0.230320	 0.500000 
Pt95	 0.620219	 0.284447	 0.000000 
Pt96	 0.643096	 0.369823	 0.000000 
Pt97	 0.674346	 0.315697	 0.500000 
Pt98	 0.588969	 0.338573	 0.500000 
Pt99	 0.557719	 0.392700	 0.000000 
Pt100	 0.580596	 0.478077	 0.000000 
Pt101	 0.611846	 0.423950	 0.500000 
Pt102	 0.526469	 0.446827	 0.500000 
Pt103	 0.495219	 0.500953	 0.000000 
Pt104	 0.518096	 0.586330	 0.000000 
Pt105	 0.549346	 0.532203	 0.500000 
Pt106	 0.463969	 0.555080	 0.500000 
Pt107	 0.432719	 0.609206	 0.000000 
Pt108	 0.455596	 0.694583	 0.000000 
Pt109	 0.486846	 0.640456	 0.500000 
Pt110	 0.401469	 0.663333	 0.500000 
Pt111	 0.370219	 0.717460	 0.000000 
Pt112	 0.393096	 0.802836	 0.000000 
Pt113	 0.424346	 0.748710	 0.500000 
Pt114	 0.338969	 0.771586	 0.500000 
Pt115	 0.307719	 0.825713	 0.000000 
Pt116	 0.330596	 0.911089	 0.000000 
Pt117	 0.361846	 0.856963	 0.500000 
Pt118	 0.276469	 0.879839	 0.500000 
Pt119	 0.853473	 0.130441	 0.000000 
Pt120	 0.876349	 0.215817	 0.000000 
Pt121	 0.907599	 0.161691	 0.500000 
Pt122	 0.822223	 0.184567	 0.500000 
Pt123	 0.790973	 0.238694	 0.000000 
Pt124	 0.813849	 0.324070	 0.000000 
Pt125	 0.845099	 0.269944	 0.500000 
Pt126	 0.759723	 0.292820	 0.500000 
Pt127	 0.728473	 0.346947	 0.000000 
Pt128	 0.751349	 0.432323	 0.000000 
Pt129	 0.782599	 0.378197	 0.500000 
Pt130	 0.697223	 0.401073	 0.500000 
Pt131	 0.665973	 0.455200	 0.000000 
Pt132	 0.688849	 0.540577	 0.000000 
Pt133	 0.720099	 0.486450	 0.500000 
Pt134	 0.634723	 0.509327	 0.500000 
Pt135	 0.603473	 0.563453	 0.000000 
Pt136	 0.626349	 0.648830	 0.000000 
Pt137	 0.657599	 0.594703	 0.500000 
Pt138	 0.572223	 0.617580	 0.500000 
Pt139	 0.540973	 0.671706	 0.000000 
Pt140	 0.563849	 0.757083	 0.000000 
Pt141	 0.595099	 0.702956	 0.500000 
Pt142	 0.509723	 0.725833	 0.500000 
Pt143	 0.478473	 0.779960	 0.000000 
Pt144	 0.501349	 0.865336	 0.000000 
Pt145	 0.532599	 0.811210	 0.500000 
Pt146	 0.447223	 0.834086	 0.500000 
Pt147	 0.415973	 0.888213	 0.000000 
Pt148	 0.438849	 0.973589	 0.000000 
Pt149	 0.470099	 0.919463	 0.500000 
Pt150	 0.384723	 0.942339	 0.500000 
Pt151	 0.961726	 0.192941	 0.000000 
Pt152	 0.984602	 0.278317	 0.000000 
Pt153	 0.930476	 0.247067	 0.500000 
Pt154	 0.899226	 0.301194	 0.000000 
Pt155	 0.922102	 0.386570	 0.000000 
Pt156	 0.953352	 0.332444	 0.500000 
Pt157	 0.867976	 0.355320	 0.500000 
Pt158	 0.836726	 0.409447	 0.000000 
Pt159	 0.859602	 0.494823	 0.000000 
Pt160	 0.890852	 0.440697	 0.500000 
Pt161	 0.805476	 0.463573	 0.500000 
Pt162	 0.774226	 0.517700	 0.000000 
Pt163	 0.797102	 0.603077	 0.000000 
Pt164	 0.828352	 0.548950	 0.500000 
Pt165	 0.742976	 0.571827	 0.500000 
Pt166	 0.711726	 0.625953	 0.000000 
Pt167	 0.734602	 0.711330	 0.000000 
Pt168	 0.765852	 0.657203	 0.500000 
Pt169	 0.680476	 0.680080	 0.500000 
Pt170	 0.649226	 0.734206	 0.000000 
Pt171	 0.672102	 0.819583	 0.000000 
Pt172	 0.703352	 0.765456	 0.500000 
Pt173	 0.617976	 0.788333	 0.500000 
Pt174	 0.586726	 0.842460	 0.000000 
Pt175	 0.609602	 0.927836	 0.000000 
Pt176	 0.640852	 0.873710	 0.500000 
Pt177	 0.555476	 0.896586	 0.500000 
Pt178	 0.524226	 0.950713	 0.000000 
Pt179	 0.578352	 0.981963	 0.500000 
Pt180	 0.976229	 0.417820	 0.500000 
Pt181	 0.944979	 0.471947	 0.000000 
Pt182	 0.967856	 0.557323	 0.000000 
Pt183	 0.999106	 0.503197	 0.500000 
Pt184	 0.913729	 0.526073	 0.500000 
Pt185	 0.882479	 0.580200	 0.000000 
Pt186	 0.905356	 0.665577	 0.000000 
Pt187	 0.936606	 0.611450	 0.500000 
Pt188	 0.851229	 0.634327	 0.500000 
Pt189	 0.819979	 0.688453	 0.000000 
Pt190	 0.842856	 0.773830	 0.000000 
Pt191	 0.874106	 0.719703	 0.500000 
Pt192	 0.788729	 0.742580	 0.500000 
Pt193	 0.757479	 0.796706	 0.000000 
Pt194	 0.780356	 0.882083	 0.000000 
Pt195	 0.811606	 0.827956	 0.500000 
Pt196	 0.726229	 0.850833	 0.500000 
Pt197	 0.694979	 0.904960	 0.000000 
Pt198	 0.717856	 0.990336	 0.000000 
Pt199	 0.749106	 0.936210	 0.500000 
Pt200	 0.663729	 0.959086	 0.500000 
Pt201	 0.272583	 0.011570	 0.000000 
Pt202	 0.210083	 0.119823	 0.000000 
Pt203	 0.241333	 0.065697	 0.500000 
Pt204	 0.990732	 0.642700	 0.000000 
Pt205	 0.147583	 0.228077	 0.000000 
Pt206	 0.178833	 0.173950	 0.500000 
Pt207	 0.959482	 0.696827	 0.500000 
Pt208	 0.928232	 0.750953	 0.000000 
Pt209	 0.085083	 0.336330	 0.000000 
Pt210	 0.116333	 0.282203	 0.500000 
Pt211	 0.896982	 0.805080	 0.500000 
Pt212	 0.865732	 0.859206	 0.000000 
Pt213	 0.022583	 0.444583	 0.000000 
Pt214	 0.053833	 0.390456	 0.500000 
Pt215	 0.834482	 0.913333	 0.500000 
Pt216	 0.803232	 0.967460	 0.000000 
#                 ---end-of-data-block---
