data_Pt structure along [001] nx 8 ny 8 nz 1
_cell_length_a               31.360000
_cell_length_b               31.360000
_cell_length_c               3.920000
_cell_angle_alpha          90.000000
_cell_angle_beta           90.000000
_cell_angle_gamma          90.000000
_symmetry_cell_setting          Triclinic
_symmetry_space_group_name_H-M 'P 1' 
loop_
_atom_site_label
_atom_site_fract_x
_atom_site_fract_y
_atom_site_fract_z
Pt1	 0.333485	 0.032896	 0.000000 
Pt2	 0.279358	 0.001646	 0.500000 
Pt3	 0.248108	 0.055773	 0.000000 
Pt4	 0.270985	 0.141149	 0.000000 
Pt5	 0.302235	 0.087023	 0.500000 
Pt6	 0.216858	 0.109899	 0.500000 
Pt7	 0.185608	 0.164026	 0.000000 
Pt8	 0.208485	 0.249402	 0.000000 
Pt9	 0.239735	 0.195276	 0.500000 
Pt10	 0.154358	 0.218152	 0.500000 
Pt11	 0.123108	 0.272279	 0.000000 
Pt12	 0.145985	 0.357655	 0.000000 
Pt13	 0.177235	 0.303529	 0.500000 
Pt14	 0.091858	 0.326405	 0.500000 
Pt15	 0.060608	 0.380532	 0.000000 
Pt16	 0.083485	 0.465909	 0.000000 
Pt17	 0.114735	 0.411782	 0.500000 
Pt18	 0.029358	 0.434659	 0.500000 
Pt19	 0.020985	 0.574162	 0.000000 
Pt20	 0.052235	 0.520035	 0.500000 
Pt21	 0.418861	 0.010019	 0.000000 
Pt22	 0.441738	 0.095396	 0.000000 
Pt23	 0.472988	 0.041269	 0.500000 
Pt24	 0.387611	 0.064146	 0.500000 
Pt25	 0.356361	 0.118273	 0.000000 
Pt26	 0.379238	 0.203649	 0.000000 
Pt27	 0.410488	 0.149523	 0.500000 
Pt28	 0.325111	 0.172399	 0.500000 
Pt29	 0.293861	 0.226526	 0.000000 
Pt30	 0.316738	 0.311902	 0.000000 
Pt31	 0.347988	 0.257776	 0.500000 
Pt32	 0.262611	 0.280652	 0.500000 
Pt33	 0.231361	 0.334779	 0.000000 
Pt34	 0.254238	 0.420155	 0.000000 
Pt35	 0.285488	 0.366029	 0.500000 
Pt36	 0.200111	 0.388905	 0.500000 
Pt37	 0.168861	 0.443032	 0.000000 
Pt38	 0.191738	 0.528409	 0.000000 
Pt39	 0.222988	 0.474282	 0.500000 
Pt40	 0.137611	 0.497159	 0.500000 
Pt41	 0.106361	 0.551285	 0.000000 
Pt42	 0.129238	 0.636662	 0.000000 
Pt43	 0.160488	 0.582535	 0.500000 
Pt44	 0.075111	 0.605412	 0.500000 
Pt45	 0.043861	 0.659538	 0.000000 
Pt46	 0.066738	 0.744915	 0.000000 
Pt47	 0.097988	 0.690788	 0.500000 
Pt48	 0.012611	 0.713665	 0.500000 
Pt49	 0.035488	 0.799042	 0.500000 
Pt50	 0.527115	 0.072519	 0.000000 
Pt51	 0.549991	 0.157896	 0.000000 
Pt52	 0.581241	 0.103769	 0.500000 
Pt53	 0.495865	 0.126646	 0.500000 
Pt54	 0.464615	 0.180773	 0.000000 
Pt55	 0.487491	 0.266149	 0.000000 
Pt56	 0.518741	 0.212023	 0.500000 
Pt57	 0.433365	 0.234899	 0.500000 
Pt58	 0.402115	 0.289026	 0.000000 
Pt59	 0.424991	 0.374402	 0.000000 
Pt60	 0.456241	 0.320276	 0.500000 
Pt61	 0.370865	 0.343152	 0.500000 
Pt62	 0.339615	 0.397279	 0.000000 
Pt63	 0.362491	 0.482655	 0.000000 
Pt64	 0.393741	 0.428529	 0.500000 
Pt65	 0.308365	 0.451405	 0.500000 
Pt66	 0.277115	 0.505532	 0.000000 
Pt67	 0.299991	 0.590909	 0.000000 
Pt68	 0.331241	 0.536782	 0.500000 
Pt69	 0.245865	 0.559659	 0.500000 
Pt70	 0.214615	 0.613785	 0.000000 
Pt71	 0.237491	 0.699162	 0.000000 
Pt72	 0.268741	 0.645035	 0.500000 
Pt73	 0.183365	 0.667912	 0.500000 
Pt74	 0.152115	 0.722038	 0.000000 
Pt75	 0.174991	 0.807415	 0.000000 
Pt76	 0.206241	 0.753288	 0.500000 
Pt77	 0.120865	 0.776165	 0.500000 
Pt78	 0.089615	 0.830292	 0.000000 
Pt79	 0.612491	 0.049643	 0.000000 
Pt80	 0.143741	 0.861542	 0.500000 
Pt81	 0.558365	 0.018393	 0.500000 
Pt82	 0.635368	 0.135019	 0.000000 
Pt83	 0.658244	 0.220396	 0.000000 
Pt84	 0.689494	 0.166269	 0.500000 
Pt85	 0.604118	 0.189146	 0.500000 
Pt86	 0.572868	 0.243273	 0.000000 
Pt87	 0.595744	 0.328649	 0.000000 
Pt88	 0.626994	 0.274523	 0.500000 
Pt89	 0.541618	 0.297399	 0.500000 
Pt90	 0.510368	 0.351526	 0.000000 
Pt91	 0.533244	 0.436902	 0.000000 
Pt92	 0.564494	 0.382776	 0.500000 
Pt93	 0.479118	 0.405652	 0.500000 
Pt94	 0.447868	 0.459779	 0.000000 
Pt95	 0.470744	 0.545155	 0.000000 
Pt96	 0.501994	 0.491029	 0.500000 
Pt97	 0.416618	 0.513905	 0.500000 
Pt98	 0.385368	 0.568032	 0.000000 
Pt99	 0.408244	 0.653409	 0.000000 
Pt100	 0.439494	 0.599282	 0.500000 
Pt101	 0.354118	 0.622159	 0.500000 
Pt102	 0.322868	 0.676285	 0.000000 
Pt103	 0.345744	 0.761662	 0.000000 
Pt104	 0.376994	 0.707535	 0.500000 
Pt105	 0.291618	 0.730412	 0.500000 
Pt106	 0.260368	 0.784538	 0.000000 
Pt107	 0.283244	 0.869915	 0.000000 
Pt108	 0.314494	 0.815788	 0.500000 
Pt109	 0.229118	 0.838665	 0.500000 
Pt110	 0.197868	 0.892792	 0.000000 
Pt111	 0.720744	 0.112143	 0.000000 
Pt112	 0.251994	 0.924042	 0.500000 
Pt113	 0.666618	 0.080893	 0.500000 
Pt114	 0.743621	 0.197519	 0.000000 
Pt115	 0.766498	 0.282896	 0.000000 
Pt116	 0.797748	 0.228769	 0.500000 
Pt117	 0.712371	 0.251646	 0.500000 
Pt118	 0.681121	 0.305773	 0.000000 
Pt119	 0.703998	 0.391149	 0.000000 
Pt120	 0.735248	 0.337023	 0.500000 
Pt121	 0.649871	 0.359899	 0.500000 
Pt122	 0.618621	 0.414026	 0.000000 
Pt123	 0.641498	 0.499402	 0.000000 
Pt124	 0.672748	 0.445276	 0.500000 
Pt125	 0.587371	 0.468152	 0.500000 
Pt126	 0.556121	 0.522279	 0.000000 
Pt127	 0.578998	 0.607655	 0.000000 
Pt128	 0.610248	 0.553529	 0.500000 
Pt129	 0.524871	 0.576405	 0.500000 
Pt130	 0.493621	 0.630532	 0.000000 
Pt131	 0.516498	 0.715909	 0.000000 
Pt132	 0.547748	 0.661782	 0.500000 
Pt133	 0.462371	 0.684659	 0.500000 
Pt134	 0.431121	 0.738785	 0.000000 
Pt135	 0.453998	 0.824162	 0.000000 
Pt136	 0.485248	 0.770035	 0.500000 
Pt137	 0.399871	 0.792912	 0.500000 
Pt138	 0.368621	 0.847038	 0.000000 
Pt139	 0.391498	 0.932415	 0.000000 
Pt140	 0.422748	 0.878288	 0.500000 
Pt141	 0.337371	 0.901165	 0.500000 
Pt142	 0.306121	 0.955292	 0.000000 
Pt143	 0.828998	 0.174643	 0.000000 
Pt144	 0.360248	 0.986542	 0.500000 
Pt145	 0.774871	 0.143393	 0.500000 
Pt146	 0.851874	 0.260019	 0.000000 
Pt147	 0.874751	 0.345396	 0.000000 
Pt148	 0.906001	 0.291269	 0.500000 
Pt149	 0.820624	 0.314146	 0.500000 
Pt150	 0.789374	 0.368273	 0.000000 
Pt151	 0.812251	 0.453649	 0.000000 
Pt152	 0.843501	 0.399523	 0.500000 
Pt153	 0.758124	 0.422399	 0.500000 
Pt154	 0.726874	 0.476526	 0.000000 
Pt155	 0.749751	 0.561902	 0.000000 
Pt156	 0.781001	 0.507776	 0.500000 
Pt157	 0.695624	 0.530652	 0.500000 
Pt158	 0.664374	 0.584779	 0.000000 
Pt159	 0.687251	 0.670155	 0.000000 
Pt160	 0.718501	 0.616029	 0.500000 
Pt161	 0.633124	 0.638905	 0.500000 
Pt162	 0.601874	 0.693032	 0.000000 
Pt163	 0.624751	 0.778409	 0.000000 
Pt164	 0.656001	 0.724282	 0.500000 
Pt165	 0.570624	 0.747159	 0.500000 
Pt166	 0.539374	 0.801285	 0.000000 
Pt167	 0.562251	 0.886662	 0.000000 
Pt168	 0.593501	 0.832535	 0.500000 
Pt169	 0.508124	 0.855412	 0.500000 
Pt170	 0.476874	 0.909538	 0.000000 
Pt171	 0.499751	 0.994915	 0.000000 
Pt172	 0.531001	 0.940788	 0.500000 
Pt173	 0.445624	 0.963665	 0.500000 
Pt174	 0.937251	 0.237143	 0.000000 
Pt175	 0.883124	 0.205893	 0.500000 
Pt176	 0.960127	 0.322519	 0.000000 
Pt177	 0.983004	 0.407896	 0.000000 
Pt178	 0.928877	 0.376646	 0.500000 
Pt179	 0.897627	 0.430773	 0.000000 
Pt180	 0.920504	 0.516149	 0.000000 
Pt181	 0.951754	 0.462023	 0.500000 
Pt182	 0.866377	 0.484899	 0.500000 
Pt183	 0.835127	 0.539026	 0.000000 
Pt184	 0.858004	 0.624402	 0.000000 
Pt185	 0.889254	 0.570276	 0.500000 
Pt186	 0.803877	 0.593152	 0.500000 
Pt187	 0.772627	 0.647279	 0.000000 
Pt188	 0.795504	 0.732655	 0.000000 
Pt189	 0.826754	 0.678529	 0.500000 
Pt190	 0.741377	 0.701405	 0.500000 
Pt191	 0.710127	 0.755532	 0.000000 
Pt192	 0.733004	 0.840909	 0.000000 
Pt193	 0.764254	 0.786782	 0.500000 
Pt194	 0.678877	 0.809659	 0.500000 
Pt195	 0.647627	 0.863785	 0.000000 
Pt196	 0.670504	 0.949162	 0.000000 
Pt197	 0.701754	 0.895035	 0.500000 
Pt198	 0.616377	 0.917912	 0.500000 
Pt199	 0.585127	 0.972038	 0.000000 
Pt200	 0.991377	 0.268393	 0.500000 
Pt201	 0.974631	 0.547399	 0.500000 
Pt202	 0.943381	 0.601526	 0.000000 
Pt203	 0.966257	 0.686902	 0.000000 
Pt204	 0.997507	 0.632776	 0.500000 
Pt205	 0.912131	 0.655652	 0.500000 
Pt206	 0.880881	 0.709779	 0.000000 
Pt207	 0.903757	 0.795155	 0.000000 
Pt208	 0.935007	 0.741029	 0.500000 
Pt209	 0.849631	 0.763905	 0.500000 
Pt210	 0.818381	 0.818032	 0.000000 
Pt211	 0.841257	 0.903409	 0.000000 
Pt212	 0.872507	 0.849282	 0.500000 
Pt213	 0.787131	 0.872159	 0.500000 
Pt214	 0.755881	 0.926285	 0.000000 
Pt215	 0.810007	 0.957535	 0.500000 
Pt216	 0.724631	 0.980412	 0.500000 
#                 ---end-of-data-block---
