data_Pt structure along [001] nx 8 ny 8 nz 1
_cell_length_a               31.360000
_cell_length_b               31.360000
_cell_length_c               3.920000
_cell_angle_alpha          90.000000
_cell_angle_beta           90.000000
_cell_angle_gamma          90.000000
_symmetry_cell_setting          Triclinic
_symmetry_space_group_name_H-M 'P 1' 
loop_
_atom_site_label
_atom_site_fract_x
_atom_site_fract_y
_atom_site_fract_z
Pt1	 0.382613	 0.021093	 0.000000 
Pt2	 0.294225	 0.021093	 0.000000 
Pt3	 0.294225	 0.109481	 0.000000 
Pt4	 0.338419	 0.065287	 0.500000 
Pt5	 0.250031	 0.065287	 0.500000 
Pt6	 0.205836	 0.109481	 0.000000 
Pt7	 0.205836	 0.197870	 0.000000 
Pt8	 0.250031	 0.153675	 0.500000 
Pt9	 0.161642	 0.153675	 0.500000 
Pt10	 0.117448	 0.197870	 0.000000 
Pt11	 0.117448	 0.286258	 0.000000 
Pt12	 0.161642	 0.242064	 0.500000 
Pt13	 0.073254	 0.242064	 0.500000 
Pt14	 0.029060	 0.286258	 0.000000 
Pt15	 0.029060	 0.374646	 0.000000 
Pt16	 0.073254	 0.330452	 0.500000 
Pt17	 0.559390	 0.021093	 0.000000 
Pt18	 0.471002	 0.021093	 0.000000 
Pt19	 0.471002	 0.109481	 0.000000 
Pt20	 0.515196	 0.065287	 0.500000 
Pt21	 0.426807	 0.065287	 0.500000 
Pt22	 0.382613	 0.109481	 0.000000 
Pt23	 0.382613	 0.197870	 0.000000 
Pt24	 0.426807	 0.153675	 0.500000 
Pt25	 0.338419	 0.153675	 0.500000 
Pt26	 0.294225	 0.197870	 0.000000 
Pt27	 0.294225	 0.286258	 0.000000 
Pt28	 0.338419	 0.242064	 0.500000 
Pt29	 0.250031	 0.242064	 0.500000 
Pt30	 0.205836	 0.286258	 0.000000 
Pt31	 0.205836	 0.374646	 0.000000 
Pt32	 0.250031	 0.330452	 0.500000 
Pt33	 0.161642	 0.330452	 0.500000 
Pt34	 0.117448	 0.374646	 0.000000 
Pt35	 0.117448	 0.463035	 0.000000 
Pt36	 0.161642	 0.418841	 0.500000 
Pt37	 0.073254	 0.418841	 0.500000 
Pt38	 0.029060	 0.463035	 0.000000 
Pt39	 0.029060	 0.551423	 0.000000 
Pt40	 0.073254	 0.507229	 0.500000 
Pt41	 0.647778	 0.021093	 0.000000 
Pt42	 0.647778	 0.109481	 0.000000 
Pt43	 0.691972	 0.065287	 0.500000 
Pt44	 0.603584	 0.065287	 0.500000 
Pt45	 0.559390	 0.109481	 0.000000 
Pt46	 0.559390	 0.197870	 0.000000 
Pt47	 0.603584	 0.153675	 0.500000 
Pt48	 0.515196	 0.153675	 0.500000 
Pt49	 0.471002	 0.197870	 0.000000 
Pt50	 0.471002	 0.286258	 0.000000 
Pt51	 0.515196	 0.242064	 0.500000 
Pt52	 0.426807	 0.242064	 0.500000 
Pt53	 0.382613	 0.286258	 0.000000 
Pt54	 0.382613	 0.374646	 0.000000 
Pt55	 0.426807	 0.330452	 0.500000 
Pt56	 0.338419	 0.330452	 0.500000 
Pt57	 0.294225	 0.374646	 0.000000 
Pt58	 0.294225	 0.463035	 0.000000 
Pt59	 0.338419	 0.418841	 0.500000 
Pt60	 0.250031	 0.418841	 0.500000 
Pt61	 0.205836	 0.463035	 0.000000 
Pt62	 0.205836	 0.551423	 0.000000 
Pt63	 0.250031	 0.507229	 0.500000 
Pt64	 0.161642	 0.507229	 0.500000 
Pt65	 0.117448	 0.551423	 0.000000 
Pt66	 0.117448	 0.639811	 0.000000 
Pt67	 0.161642	 0.595617	 0.500000 
Pt68	 0.073254	 0.595617	 0.500000 
Pt69	 0.029060	 0.639811	 0.000000 
Pt70	 0.029060	 0.728200	 0.000000 
Pt71	 0.073254	 0.684006	 0.500000 
Pt72	 0.736167	 0.109481	 0.000000 
Pt73	 0.736167	 0.197870	 0.000000 
Pt74	 0.780361	 0.153675	 0.500000 
Pt75	 0.691972	 0.153675	 0.500000 
Pt76	 0.647778	 0.197870	 0.000000 
Pt77	 0.647778	 0.286258	 0.000000 
Pt78	 0.691972	 0.242064	 0.500000 
Pt79	 0.603584	 0.242064	 0.500000 
Pt80	 0.559390	 0.286258	 0.000000 
Pt81	 0.559390	 0.374646	 0.000000 
Pt82	 0.603584	 0.330452	 0.500000 
Pt83	 0.515196	 0.330452	 0.500000 
Pt84	 0.471002	 0.374646	 0.000000 
Pt85	 0.471002	 0.463035	 0.000000 
Pt86	 0.515196	 0.418841	 0.500000 
Pt87	 0.426807	 0.418841	 0.500000 
Pt88	 0.382613	 0.463035	 0.000000 
Pt89	 0.382613	 0.551423	 0.000000 
Pt90	 0.426807	 0.507229	 0.500000 
Pt91	 0.338419	 0.507229	 0.500000 
Pt92	 0.294225	 0.551423	 0.000000 
Pt93	 0.294225	 0.639811	 0.000000 
Pt94	 0.338419	 0.595617	 0.500000 
Pt95	 0.250031	 0.595617	 0.500000 
Pt96	 0.205836	 0.639811	 0.000000 
Pt97	 0.205836	 0.728200	 0.000000 
Pt98	 0.250031	 0.684006	 0.500000 
Pt99	 0.161642	 0.684006	 0.500000 
Pt100	 0.117448	 0.728200	 0.000000 
Pt101	 0.117448	 0.816588	 0.000000 
Pt102	 0.161642	 0.772394	 0.500000 
Pt103	 0.073254	 0.772394	 0.500000 
Pt104	 0.824555	 0.197870	 0.000000 
Pt105	 0.824555	 0.286258	 0.000000 
Pt106	 0.868749	 0.242064	 0.500000 
Pt107	 0.780361	 0.242064	 0.500000 
Pt108	 0.736167	 0.286258	 0.000000 
Pt109	 0.736167	 0.374646	 0.000000 
Pt110	 0.780361	 0.330452	 0.500000 
Pt111	 0.691972	 0.330452	 0.500000 
Pt112	 0.647778	 0.374646	 0.000000 
Pt113	 0.647778	 0.463035	 0.000000 
Pt114	 0.691972	 0.418841	 0.500000 
Pt115	 0.603584	 0.418841	 0.500000 
Pt116	 0.559390	 0.463035	 0.000000 
Pt117	 0.559390	 0.551423	 0.000000 
Pt118	 0.603584	 0.507229	 0.500000 
Pt119	 0.515196	 0.507229	 0.500000 
Pt120	 0.471002	 0.551423	 0.000000 
Pt121	 0.471002	 0.639811	 0.000000 
Pt122	 0.515196	 0.595617	 0.500000 
Pt123	 0.426807	 0.595617	 0.500000 
Pt124	 0.382613	 0.639811	 0.000000 
Pt125	 0.382613	 0.728200	 0.000000 
Pt126	 0.426807	 0.684006	 0.500000 
Pt127	 0.338419	 0.684006	 0.500000 
Pt128	 0.294225	 0.728200	 0.000000 
Pt129	 0.294225	 0.816588	 0.000000 
Pt130	 0.338419	 0.772394	 0.500000 
Pt131	 0.250031	 0.772394	 0.500000 
Pt132	 0.205836	 0.816588	 0.000000 
Pt133	 0.205836	 0.904976	 0.000000 
Pt134	 0.250031	 0.860782	 0.500000 
Pt135	 0.161642	 0.860782	 0.500000 
Pt136	 0.912943	 0.286258	 0.000000 
Pt137	 0.912943	 0.374646	 0.000000 
Pt138	 0.957137	 0.330452	 0.500000 
Pt139	 0.868749	 0.330452	 0.500000 
Pt140	 0.824555	 0.374646	 0.000000 
Pt141	 0.824555	 0.463035	 0.000000 
Pt142	 0.868749	 0.418841	 0.500000 
Pt143	 0.780361	 0.418841	 0.500000 
Pt144	 0.736167	 0.463035	 0.000000 
Pt145	 0.736167	 0.551423	 0.000000 
Pt146	 0.780361	 0.507229	 0.500000 
Pt147	 0.691972	 0.507229	 0.500000 
Pt148	 0.647778	 0.551423	 0.000000 
Pt149	 0.647778	 0.639811	 0.000000 
Pt150	 0.691972	 0.595617	 0.500000 
Pt151	 0.603584	 0.595617	 0.500000 
Pt152	 0.559390	 0.639811	 0.000000 
Pt153	 0.559390	 0.728200	 0.000000 
Pt154	 0.603584	 0.684006	 0.500000 
Pt155	 0.515196	 0.684006	 0.500000 
Pt156	 0.471002	 0.728200	 0.000000 
Pt157	 0.471002	 0.816588	 0.000000 
Pt158	 0.515196	 0.772394	 0.500000 
Pt159	 0.426807	 0.772394	 0.500000 
Pt160	 0.382613	 0.816588	 0.000000 
Pt161	 0.382613	 0.904976	 0.000000 
Pt162	 0.426807	 0.860782	 0.500000 
Pt163	 0.338419	 0.860782	 0.500000 
Pt164	 0.294225	 0.904976	 0.000000 
Pt165	 0.294225	 0.993365	 0.000000 
Pt166	 0.338419	 0.949171	 0.500000 
Pt167	 0.250031	 0.949171	 0.500000 
Pt168	 0.957137	 0.418841	 0.500000 
Pt169	 0.912943	 0.463035	 0.000000 
Pt170	 0.912943	 0.551423	 0.000000 
Pt171	 0.957137	 0.507229	 0.500000 
Pt172	 0.868749	 0.507229	 0.500000 
Pt173	 0.824555	 0.551423	 0.000000 
Pt174	 0.824555	 0.639811	 0.000000 
Pt175	 0.868749	 0.595617	 0.500000 
Pt176	 0.780361	 0.595617	 0.500000 
Pt177	 0.736167	 0.639811	 0.000000 
Pt178	 0.736167	 0.728200	 0.000000 
Pt179	 0.780361	 0.684006	 0.500000 
Pt180	 0.691972	 0.684006	 0.500000 
Pt181	 0.647778	 0.728200	 0.000000 
Pt182	 0.647778	 0.816588	 0.000000 
Pt183	 0.691972	 0.772394	 0.500000 
Pt184	 0.603584	 0.772394	 0.500000 
Pt185	 0.559390	 0.816588	 0.000000 
Pt186	 0.559390	 0.904976	 0.000000 
Pt187	 0.603584	 0.860782	 0.500000 
Pt188	 0.515196	 0.860782	 0.500000 
Pt189	 0.471002	 0.904976	 0.000000 
Pt190	 0.471002	 0.993365	 0.000000 
Pt191	 0.515196	 0.949171	 0.500000 
Pt192	 0.426807	 0.949171	 0.500000 
Pt193	 0.382613	 0.993365	 0.000000 
Pt194	 0.957137	 0.595617	 0.500000 
Pt195	 0.912943	 0.639811	 0.000000 
Pt196	 0.912943	 0.728200	 0.000000 
Pt197	 0.957137	 0.684006	 0.500000 
Pt198	 0.868749	 0.684006	 0.500000 
Pt199	 0.824555	 0.728200	 0.000000 
Pt200	 0.824555	 0.816588	 0.000000 
Pt201	 0.868749	 0.772394	 0.500000 
Pt202	 0.780361	 0.772394	 0.500000 
Pt203	 0.736167	 0.816588	 0.000000 
Pt204	 0.736167	 0.904976	 0.000000 
Pt205	 0.780361	 0.860782	 0.500000 
Pt206	 0.691972	 0.860782	 0.500000 
Pt207	 0.647778	 0.904976	 0.000000 
Pt208	 0.647778	 0.993365	 0.000000 
Pt209	 0.691972	 0.949171	 0.500000 
Pt210	 0.603584	 0.949171	 0.500000 
Pt211	 0.559390	 0.993365	 0.000000 
#                 ---end-of-data-block---
