data_Pt structure along [001] nx 8 ny 8 nz 1
_cell_length_a               31.360000
_cell_length_b               31.360000
_cell_length_c               3.920000
_cell_angle_alpha          90.000000
_cell_angle_beta           90.000000
_cell_angle_gamma          90.000000
_symmetry_cell_setting          Triclinic
_symmetry_space_group_name_H-M 'P 1' 
loop_
_atom_site_label
_atom_site_fract_x
_atom_site_fract_y
_atom_site_fract_z
Pt1	 0.444659	 0.045446	 0.000000 
Pt2	 0.488853	 0.001252	 0.500000 
Pt3	 0.400465	 0.001252	 0.500000 
Pt4	 0.356271	 0.045446	 0.000000 
Pt5	 0.356271	 0.133834	 0.000000 
Pt6	 0.400465	 0.089640	 0.500000 
Pt7	 0.312077	 0.089640	 0.500000 
Pt8	 0.267882	 0.133834	 0.000000 
Pt9	 0.267882	 0.222222	 0.000000 
Pt10	 0.312077	 0.178028	 0.500000 
Pt11	 0.223688	 0.178028	 0.500000 
Pt12	 0.179494	 0.222222	 0.000000 
Pt13	 0.179494	 0.310611	 0.000000 
Pt14	 0.223688	 0.266417	 0.500000 
Pt15	 0.135300	 0.266417	 0.500000 
Pt16	 0.091106	 0.310611	 0.000000 
Pt17	 0.091106	 0.398999	 0.000000 
Pt18	 0.135300	 0.354805	 0.500000 
Pt19	 0.046912	 0.354805	 0.500000 
Pt20	 0.002717	 0.398999	 0.000000 
Pt21	 0.002717	 0.487387	 0.000000 
Pt22	 0.046912	 0.443193	 0.500000 
Pt23	 0.621436	 0.045446	 0.000000 
Pt24	 0.665630	 0.001252	 0.500000 
Pt25	 0.577242	 0.001252	 0.500000 
Pt26	 0.533048	 0.045446	 0.000000 
Pt27	 0.533048	 0.133834	 0.000000 
Pt28	 0.577242	 0.089640	 0.500000 
Pt29	 0.488853	 0.089640	 0.500000 
Pt30	 0.444659	 0.133834	 0.000000 
Pt31	 0.444659	 0.222222	 0.000000 
Pt32	 0.488853	 0.178028	 0.500000 
Pt33	 0.400465	 0.178028	 0.500000 
Pt34	 0.356271	 0.222222	 0.000000 
Pt35	 0.356271	 0.310611	 0.000000 
Pt36	 0.400465	 0.266417	 0.500000 
Pt37	 0.312077	 0.266417	 0.500000 
Pt38	 0.267882	 0.310611	 0.000000 
Pt39	 0.267882	 0.398999	 0.000000 
Pt40	 0.312077	 0.354805	 0.500000 
Pt41	 0.223688	 0.354805	 0.500000 
Pt42	 0.179494	 0.398999	 0.000000 
Pt43	 0.179494	 0.487387	 0.000000 
Pt44	 0.223688	 0.443193	 0.500000 
Pt45	 0.135300	 0.443193	 0.500000 
Pt46	 0.091106	 0.487387	 0.000000 
Pt47	 0.091106	 0.575776	 0.000000 
Pt48	 0.135300	 0.531582	 0.500000 
Pt49	 0.046912	 0.531582	 0.500000 
Pt50	 0.002717	 0.575776	 0.000000 
Pt51	 0.002717	 0.664164	 0.000000 
Pt52	 0.046912	 0.619970	 0.500000 
Pt53	 0.709824	 0.045446	 0.000000 
Pt54	 0.709824	 0.133834	 0.000000 
Pt55	 0.754018	 0.089640	 0.500000 
Pt56	 0.665630	 0.089640	 0.500000 
Pt57	 0.621436	 0.133834	 0.000000 
Pt58	 0.621436	 0.222222	 0.000000 
Pt59	 0.665630	 0.178028	 0.500000 
Pt60	 0.577242	 0.178028	 0.500000 
Pt61	 0.533048	 0.222222	 0.000000 
Pt62	 0.533048	 0.310611	 0.000000 
Pt63	 0.577242	 0.266417	 0.500000 
Pt64	 0.488853	 0.266417	 0.500000 
Pt65	 0.444659	 0.310611	 0.000000 
Pt66	 0.444659	 0.398999	 0.000000 
Pt67	 0.488853	 0.354805	 0.500000 
Pt68	 0.400465	 0.354805	 0.500000 
Pt69	 0.356271	 0.398999	 0.000000 
Pt70	 0.356271	 0.487387	 0.000000 
Pt71	 0.400465	 0.443193	 0.500000 
Pt72	 0.312077	 0.443193	 0.500000 
Pt73	 0.267882	 0.487387	 0.000000 
Pt74	 0.267882	 0.575776	 0.000000 
Pt75	 0.312077	 0.531582	 0.500000 
Pt76	 0.223688	 0.531582	 0.500000 
Pt77	 0.179494	 0.575776	 0.000000 
Pt78	 0.179494	 0.664164	 0.000000 
Pt79	 0.223688	 0.619970	 0.500000 
Pt80	 0.135300	 0.619970	 0.500000 
Pt81	 0.091106	 0.664164	 0.000000 
Pt82	 0.091106	 0.752552	 0.000000 
Pt83	 0.135300	 0.708358	 0.500000 
Pt84	 0.046912	 0.708358	 0.500000 
Pt85	 0.798213	 0.133834	 0.000000 
Pt86	 0.798213	 0.222222	 0.000000 
Pt87	 0.842407	 0.178028	 0.500000 
Pt88	 0.754018	 0.178028	 0.500000 
Pt89	 0.709824	 0.222222	 0.000000 
Pt90	 0.709824	 0.310611	 0.000000 
Pt91	 0.754018	 0.266417	 0.500000 
Pt92	 0.665630	 0.266417	 0.500000 
Pt93	 0.621436	 0.310611	 0.000000 
Pt94	 0.621436	 0.398999	 0.000000 
Pt95	 0.665630	 0.354805	 0.500000 
Pt96	 0.577242	 0.354805	 0.500000 
Pt97	 0.533048	 0.398999	 0.000000 
Pt98	 0.533048	 0.487387	 0.000000 
Pt99	 0.577242	 0.443193	 0.500000 
Pt100	 0.488853	 0.443193	 0.500000 
Pt101	 0.444659	 0.487387	 0.000000 
Pt102	 0.444659	 0.575776	 0.000000 
Pt103	 0.488853	 0.531582	 0.500000 
Pt104	 0.400465	 0.531582	 0.500000 
Pt105	 0.356271	 0.575776	 0.000000 
Pt106	 0.356271	 0.664164	 0.000000 
Pt107	 0.400465	 0.619970	 0.500000 
Pt108	 0.312077	 0.619970	 0.500000 
Pt109	 0.267882	 0.664164	 0.000000 
Pt110	 0.267882	 0.752552	 0.000000 
Pt111	 0.312077	 0.708358	 0.500000 
Pt112	 0.223688	 0.708358	 0.500000 
Pt113	 0.179494	 0.752552	 0.000000 
Pt114	 0.179494	 0.840941	 0.000000 
Pt115	 0.223688	 0.796747	 0.500000 
Pt116	 0.135300	 0.796747	 0.500000 
Pt117	 0.886601	 0.222222	 0.000000 
Pt118	 0.886601	 0.310611	 0.000000 
Pt119	 0.930795	 0.266417	 0.500000 
Pt120	 0.842407	 0.266417	 0.500000 
Pt121	 0.798213	 0.310611	 0.000000 
Pt122	 0.798213	 0.398999	 0.000000 
Pt123	 0.842407	 0.354805	 0.500000 
Pt124	 0.754018	 0.354805	 0.500000 
Pt125	 0.709824	 0.398999	 0.000000 
Pt126	 0.709824	 0.487387	 0.000000 
Pt127	 0.754018	 0.443193	 0.500000 
Pt128	 0.665630	 0.443193	 0.500000 
Pt129	 0.621436	 0.487387	 0.000000 
Pt130	 0.621436	 0.575776	 0.000000 
Pt131	 0.665630	 0.531582	 0.500000 
Pt132	 0.577242	 0.531582	 0.500000 
Pt133	 0.533048	 0.575776	 0.000000 
Pt134	 0.533048	 0.664164	 0.000000 
Pt135	 0.577242	 0.619970	 0.500000 
Pt136	 0.488853	 0.619970	 0.500000 
Pt137	 0.444659	 0.664164	 0.000000 
Pt138	 0.444659	 0.752552	 0.000000 
Pt139	 0.488853	 0.708358	 0.500000 
Pt140	 0.400465	 0.708358	 0.500000 
Pt141	 0.356271	 0.752552	 0.000000 
Pt142	 0.356271	 0.840941	 0.000000 
Pt143	 0.400465	 0.796747	 0.500000 
Pt144	 0.312077	 0.796747	 0.500000 
Pt145	 0.267882	 0.840941	 0.000000 
Pt146	 0.267882	 0.929329	 0.000000 
Pt147	 0.312077	 0.885135	 0.500000 
Pt148	 0.223688	 0.885135	 0.500000 
Pt149	 0.974989	 0.310611	 0.000000 
Pt150	 0.974989	 0.398999	 0.000000 
Pt151	 0.930795	 0.354805	 0.500000 
Pt152	 0.886601	 0.398999	 0.000000 
Pt153	 0.886601	 0.487387	 0.000000 
Pt154	 0.930795	 0.443193	 0.500000 
Pt155	 0.842407	 0.443193	 0.500000 
Pt156	 0.798213	 0.487387	 0.000000 
Pt157	 0.798213	 0.575776	 0.000000 
Pt158	 0.842407	 0.531582	 0.500000 
Pt159	 0.754018	 0.531582	 0.500000 
Pt160	 0.709824	 0.575776	 0.000000 
Pt161	 0.709824	 0.664164	 0.000000 
Pt162	 0.754018	 0.619970	 0.500000 
Pt163	 0.665630	 0.619970	 0.500000 
Pt164	 0.621436	 0.664164	 0.000000 
Pt165	 0.621436	 0.752552	 0.000000 
Pt166	 0.665630	 0.708358	 0.500000 
Pt167	 0.577242	 0.708358	 0.500000 
Pt168	 0.533048	 0.752552	 0.000000 
Pt169	 0.533048	 0.840941	 0.000000 
Pt170	 0.577242	 0.796747	 0.500000 
Pt171	 0.488853	 0.796747	 0.500000 
Pt172	 0.444659	 0.840941	 0.000000 
Pt173	 0.444659	 0.929329	 0.000000 
Pt174	 0.488853	 0.885135	 0.500000 
Pt175	 0.400465	 0.885135	 0.500000 
Pt176	 0.356271	 0.929329	 0.000000 
Pt177	 0.400465	 0.973523	 0.500000 
Pt178	 0.312077	 0.973523	 0.500000 
Pt179	 0.974989	 0.487387	 0.000000 
Pt180	 0.974989	 0.575776	 0.000000 
Pt181	 0.930795	 0.531582	 0.500000 
Pt182	 0.886601	 0.575776	 0.000000 
Pt183	 0.886601	 0.664164	 0.000000 
Pt184	 0.930795	 0.619970	 0.500000 
Pt185	 0.842407	 0.619970	 0.500000 
Pt186	 0.798213	 0.664164	 0.000000 
Pt187	 0.798213	 0.752552	 0.000000 
Pt188	 0.842407	 0.708358	 0.500000 
Pt189	 0.754018	 0.708358	 0.500000 
Pt190	 0.709824	 0.752552	 0.000000 
Pt191	 0.709824	 0.840941	 0.000000 
Pt192	 0.754018	 0.796747	 0.500000 
Pt193	 0.665630	 0.796747	 0.500000 
Pt194	 0.621436	 0.840941	 0.000000 
Pt195	 0.621436	 0.929329	 0.000000 
Pt196	 0.665630	 0.885135	 0.500000 
Pt197	 0.577242	 0.885135	 0.500000 
Pt198	 0.533048	 0.929329	 0.000000 
Pt199	 0.577242	 0.973523	 0.500000 
Pt200	 0.488853	 0.973523	 0.500000 
Pt201	 0.974989	 0.664164	 0.000000 
Pt202	 0.267882	 0.045446	 0.000000 
Pt203	 0.312077	 0.001252	 0.500000 
Pt204	 0.930795	 0.708358	 0.500000 
Pt205	 0.886601	 0.752552	 0.000000 
Pt206	 0.179494	 0.133834	 0.000000 
Pt207	 0.223688	 0.089640	 0.500000 
Pt208	 0.842407	 0.796747	 0.500000 
Pt209	 0.798213	 0.840941	 0.000000 
Pt210	 0.091106	 0.222222	 0.000000 
Pt211	 0.135300	 0.178028	 0.500000 
Pt212	 0.754018	 0.885135	 0.500000 
Pt213	 0.709824	 0.929329	 0.000000 
Pt214	 0.002717	 0.310611	 0.000000 
Pt215	 0.046912	 0.266417	 0.500000 
Pt216	 0.665630	 0.973523	 0.500000 
#                 ---end-of-data-block---
