data_Pt structure along [001] nx 8 ny 8 nz 1
_cell_length_a               31.360000
_cell_length_b               31.360000
_cell_length_c               3.920000
_cell_angle_alpha          90.000000
_cell_angle_beta           90.000000
_cell_angle_gamma          90.000000
_symmetry_cell_setting          Triclinic
_symmetry_space_group_name_H-M 'P 1' 
loop_
_atom_site_label
_atom_site_fract_x
_atom_site_fract_y
_atom_site_fract_z
Pt1	 0.676694	 0.007000	 0.000000 
Pt2	 0.568441	 0.069500	 0.000000 
Pt3	 0.622568	 0.038250	 0.500000 
Pt4	 0.537191	 0.015373	 0.500000 
Pt5	 0.483065	 0.046623	 0.000000 
Pt6	 0.460188	 0.132000	 0.000000 
Pt7	 0.514315	 0.100750	 0.500000 
Pt8	 0.428938	 0.077873	 0.500000 
Pt9	 0.374811	 0.109123	 0.000000 
Pt10	 0.351935	 0.194500	 0.000000 
Pt11	 0.406061	 0.163250	 0.500000 
Pt12	 0.320685	 0.140373	 0.500000 
Pt13	 0.266558	 0.171623	 0.000000 
Pt14	 0.243682	 0.257000	 0.000000 
Pt15	 0.297808	 0.225750	 0.500000 
Pt16	 0.212432	 0.202873	 0.500000 
Pt17	 0.158305	 0.234123	 0.000000 
Pt18	 0.135428	 0.319500	 0.000000 
Pt19	 0.189555	 0.288250	 0.500000 
Pt20	 0.104178	 0.265373	 0.500000 
Pt21	 0.050052	 0.296623	 0.000000 
Pt22	 0.027175	 0.382000	 0.000000 
Pt23	 0.081302	 0.350750	 0.500000 
Pt24	 0.762071	 0.029876	 0.000000 
Pt25	 0.739194	 0.115253	 0.000000 
Pt26	 0.793321	 0.084003	 0.500000 
Pt27	 0.707944	 0.061126	 0.500000 
Pt28	 0.653818	 0.092376	 0.000000 
Pt29	 0.630941	 0.177753	 0.000000 
Pt30	 0.685068	 0.146503	 0.500000 
Pt31	 0.599691	 0.123626	 0.500000 
Pt32	 0.545565	 0.154876	 0.000000 
Pt33	 0.522688	 0.240253	 0.000000 
Pt34	 0.576815	 0.209003	 0.500000 
Pt35	 0.491438	 0.186126	 0.500000 
Pt36	 0.437311	 0.217376	 0.000000 
Pt37	 0.414435	 0.302753	 0.000000 
Pt38	 0.468561	 0.271503	 0.500000 
Pt39	 0.383185	 0.248626	 0.500000 
Pt40	 0.329058	 0.279876	 0.000000 
Pt41	 0.306182	 0.365253	 0.000000 
Pt42	 0.360308	 0.334003	 0.500000 
Pt43	 0.274932	 0.311126	 0.500000 
Pt44	 0.220805	 0.342376	 0.000000 
Pt45	 0.197928	 0.427753	 0.000000 
Pt46	 0.252055	 0.396503	 0.500000 
Pt47	 0.166678	 0.373626	 0.500000 
Pt48	 0.112552	 0.404876	 0.000000 
Pt49	 0.089675	 0.490253	 0.000000 
Pt50	 0.143802	 0.459003	 0.500000 
Pt51	 0.058425	 0.436126	 0.500000 
Pt52	 0.004299	 0.467376	 0.000000 
Pt53	 0.035549	 0.521503	 0.500000 
Pt54	 0.824571	 0.138129	 0.000000 
Pt55	 0.801694	 0.223506	 0.000000 
Pt56	 0.855821	 0.192256	 0.500000 
Pt57	 0.770444	 0.169379	 0.500000 
Pt58	 0.716318	 0.200629	 0.000000 
Pt59	 0.693441	 0.286006	 0.000000 
Pt60	 0.747568	 0.254756	 0.500000 
Pt61	 0.662191	 0.231879	 0.500000 
Pt62	 0.608065	 0.263129	 0.000000 
Pt63	 0.585188	 0.348506	 0.000000 
Pt64	 0.639315	 0.317256	 0.500000 
Pt65	 0.553938	 0.294379	 0.500000 
Pt66	 0.499811	 0.325629	 0.000000 
Pt67	 0.476935	 0.411006	 0.000000 
Pt68	 0.531061	 0.379756	 0.500000 
Pt69	 0.445685	 0.356879	 0.500000 
Pt70	 0.391558	 0.388129	 0.000000 
Pt71	 0.368682	 0.473506	 0.000000 
Pt72	 0.422808	 0.442256	 0.500000 
Pt73	 0.337432	 0.419379	 0.500000 
Pt74	 0.283305	 0.450629	 0.000000 
Pt75	 0.260428	 0.536006	 0.000000 
Pt76	 0.314555	 0.504756	 0.500000 
Pt77	 0.229178	 0.481879	 0.500000 
Pt78	 0.175052	 0.513129	 0.000000 
Pt79	 0.152175	 0.598506	 0.000000 
Pt80	 0.206302	 0.567256	 0.500000 
Pt81	 0.120925	 0.544379	 0.500000 
Pt82	 0.066799	 0.575629	 0.000000 
Pt83	 0.043922	 0.661006	 0.000000 
Pt84	 0.098049	 0.629756	 0.500000 
Pt85	 0.012672	 0.606879	 0.500000 
Pt86	 0.887071	 0.246383	 0.000000 
Pt87	 0.864194	 0.331759	 0.000000 
Pt88	 0.918321	 0.300509	 0.500000 
Pt89	 0.832944	 0.277633	 0.500000 
Pt90	 0.778818	 0.308883	 0.000000 
Pt91	 0.755941	 0.394259	 0.000000 
Pt92	 0.810068	 0.363009	 0.500000 
Pt93	 0.724691	 0.340133	 0.500000 
Pt94	 0.670565	 0.371383	 0.000000 
Pt95	 0.647688	 0.456759	 0.000000 
Pt96	 0.701815	 0.425509	 0.500000 
Pt97	 0.616438	 0.402633	 0.500000 
Pt98	 0.562311	 0.433883	 0.000000 
Pt99	 0.539435	 0.519259	 0.000000 
Pt100	 0.593561	 0.488009	 0.500000 
Pt101	 0.508185	 0.465133	 0.500000 
Pt102	 0.454058	 0.496383	 0.000000 
Pt103	 0.431182	 0.581759	 0.000000 
Pt104	 0.485308	 0.550509	 0.500000 
Pt105	 0.399932	 0.527633	 0.500000 
Pt106	 0.345805	 0.558883	 0.000000 
Pt107	 0.322928	 0.644259	 0.000000 
Pt108	 0.377055	 0.613009	 0.500000 
Pt109	 0.291678	 0.590133	 0.500000 
Pt110	 0.237552	 0.621383	 0.000000 
Pt111	 0.214675	 0.706759	 0.000000 
Pt112	 0.268802	 0.675509	 0.500000 
Pt113	 0.183425	 0.652633	 0.500000 
Pt114	 0.129299	 0.683883	 0.000000 
Pt115	 0.106422	 0.769259	 0.000000 
Pt116	 0.160549	 0.738009	 0.500000 
Pt117	 0.075172	 0.715133	 0.500000 
Pt118	 0.949571	 0.354636	 0.000000 
Pt119	 0.926694	 0.440012	 0.000000 
Pt120	 0.980821	 0.408762	 0.500000 
Pt121	 0.895444	 0.385886	 0.500000 
Pt122	 0.841318	 0.417136	 0.000000 
Pt123	 0.818441	 0.502512	 0.000000 
Pt124	 0.872568	 0.471262	 0.500000 
Pt125	 0.787191	 0.448386	 0.500000 
Pt126	 0.733065	 0.479636	 0.000000 
Pt127	 0.710188	 0.565012	 0.000000 
Pt128	 0.764315	 0.533762	 0.500000 
Pt129	 0.678938	 0.510886	 0.500000 
Pt130	 0.624811	 0.542136	 0.000000 
Pt131	 0.601935	 0.627512	 0.000000 
Pt132	 0.656061	 0.596262	 0.500000 
Pt133	 0.570685	 0.573386	 0.500000 
Pt134	 0.516558	 0.604636	 0.000000 
Pt135	 0.493682	 0.690012	 0.000000 
Pt136	 0.547808	 0.658762	 0.500000 
Pt137	 0.462432	 0.635886	 0.500000 
Pt138	 0.408305	 0.667136	 0.000000 
Pt139	 0.385428	 0.752512	 0.000000 
Pt140	 0.439555	 0.721262	 0.500000 
Pt141	 0.354178	 0.698386	 0.500000 
Pt142	 0.300052	 0.729636	 0.000000 
Pt143	 0.277175	 0.815012	 0.000000 
Pt144	 0.331302	 0.783762	 0.500000 
Pt145	 0.245925	 0.760886	 0.500000 
Pt146	 0.191799	 0.792136	 0.000000 
Pt147	 0.168922	 0.877512	 0.000000 
Pt148	 0.223049	 0.846262	 0.500000 
Pt149	 0.137672	 0.823386	 0.500000 
Pt150	 0.989194	 0.548265	 0.000000 
Pt151	 0.957944	 0.494139	 0.500000 
Pt152	 0.903818	 0.525389	 0.000000 
Pt153	 0.880941	 0.610765	 0.000000 
Pt154	 0.935068	 0.579515	 0.500000 
Pt155	 0.849691	 0.556639	 0.500000 
Pt156	 0.795565	 0.587889	 0.000000 
Pt157	 0.772688	 0.673265	 0.000000 
Pt158	 0.826815	 0.642015	 0.500000 
Pt159	 0.741438	 0.619139	 0.500000 
Pt160	 0.687311	 0.650389	 0.000000 
Pt161	 0.664435	 0.735765	 0.000000 
Pt162	 0.718561	 0.704515	 0.500000 
Pt163	 0.633185	 0.681639	 0.500000 
Pt164	 0.579058	 0.712889	 0.000000 
Pt165	 0.556182	 0.798265	 0.000000 
Pt166	 0.610308	 0.767015	 0.500000 
Pt167	 0.524932	 0.744139	 0.500000 
Pt168	 0.470805	 0.775389	 0.000000 
Pt169	 0.447928	 0.860765	 0.000000 
Pt170	 0.502055	 0.829515	 0.500000 
Pt171	 0.416678	 0.806639	 0.500000 
Pt172	 0.362552	 0.837889	 0.000000 
Pt173	 0.339675	 0.923265	 0.000000 
Pt174	 0.393802	 0.892015	 0.500000 
Pt175	 0.308425	 0.869139	 0.500000 
Pt176	 0.254299	 0.900389	 0.000000 
Pt177	 0.231422	 0.985765	 0.000000 
Pt178	 0.285549	 0.954515	 0.500000 
Pt179	 0.200172	 0.931639	 0.500000 
Pt180	 0.966318	 0.633642	 0.000000 
Pt181	 0.943441	 0.719019	 0.000000 
Pt182	 0.997568	 0.687769	 0.500000 
Pt183	 0.912191	 0.664892	 0.500000 
Pt184	 0.858065	 0.696142	 0.000000 
Pt185	 0.835188	 0.781519	 0.000000 
Pt186	 0.889315	 0.750269	 0.500000 
Pt187	 0.803938	 0.727392	 0.500000 
Pt188	 0.749811	 0.758642	 0.000000 
Pt189	 0.726935	 0.844019	 0.000000 
Pt190	 0.781061	 0.812769	 0.500000 
Pt191	 0.695685	 0.789892	 0.500000 
Pt192	 0.641558	 0.821142	 0.000000 
Pt193	 0.618682	 0.906519	 0.000000 
Pt194	 0.672808	 0.875269	 0.500000 
Pt195	 0.587432	 0.852392	 0.500000 
Pt196	 0.533305	 0.883642	 0.000000 
Pt197	 0.510428	 0.969019	 0.000000 
Pt198	 0.564555	 0.937769	 0.500000 
Pt199	 0.479178	 0.914892	 0.500000 
Pt200	 0.425052	 0.946142	 0.000000 
Pt201	 0.370925	 0.977392	 0.500000 
Pt202	 0.974691	 0.773145	 0.500000 
Pt203	 0.920565	 0.804395	 0.000000 
Pt204	 0.397688	 0.023746	 0.000000 
Pt205	 0.866438	 0.835645	 0.500000 
Pt206	 0.812311	 0.866895	 0.000000 
Pt207	 0.289435	 0.086246	 0.000000 
Pt208	 0.343561	 0.054996	 0.500000 
Pt209	 0.758185	 0.898145	 0.500000 
Pt210	 0.704058	 0.929395	 0.000000 
Pt211	 0.181182	 0.148746	 0.000000 
Pt212	 0.235308	 0.117496	 0.500000 
Pt213	 0.649932	 0.960645	 0.500000 
Pt214	 0.595805	 0.991895	 0.000000 
Pt215	 0.072928	 0.211246	 0.000000 
Pt216	 0.127055	 0.179996	 0.500000 
Pt217	 0.018802	 0.242496	 0.500000 
#                 ---end-of-data-block---
