data_Pt structure along [001] nx 8 ny 8 nz 1
_cell_length_a               31.360000
_cell_length_b               31.360000
_cell_length_c               3.920000
_cell_angle_alpha          90.000000
_cell_angle_beta           90.000000
_cell_angle_gamma          90.000000
_symmetry_cell_setting          Triclinic
_symmetry_space_group_name_H-M 'P 1' 
loop_
_atom_site_label
_atom_site_fract_x
_atom_site_fract_y
_atom_site_fract_z
Pt1	 0.790416	 0.019067	 0.000000 
Pt2	 0.850786	 0.002891	 0.500000 
Pt3	 0.669675	 0.051420	 0.000000 
Pt4	 0.730046	 0.035243	 0.500000 
Pt5	 0.593129	 0.007225	 0.000000 
Pt6	 0.548935	 0.083772	 0.000000 
Pt7	 0.609305	 0.067596	 0.500000 
Pt8	 0.532758	 0.023402	 0.500000 
Pt9	 0.472388	 0.039578	 0.000000 
Pt10	 0.428194	 0.116124	 0.000000 
Pt11	 0.488564	 0.099948	 0.500000 
Pt12	 0.412018	 0.055754	 0.500000 
Pt13	 0.351647	 0.071930	 0.000000 
Pt14	 0.307453	 0.148477	 0.000000 
Pt15	 0.367824	 0.132300	 0.500000 
Pt16	 0.291277	 0.088106	 0.500000 
Pt17	 0.230907	 0.104283	 0.000000 
Pt18	 0.186712	 0.180829	 0.000000 
Pt19	 0.247083	 0.164653	 0.500000 
Pt20	 0.170536	 0.120459	 0.500000 
Pt21	 0.110166	 0.136635	 0.000000 
Pt22	 0.065972	 0.213181	 0.000000 
Pt23	 0.126342	 0.197005	 0.500000 
Pt24	 0.049796	 0.152811	 0.500000 
Pt25	 0.005601	 0.229358	 0.500000 
Pt26	 0.866963	 0.063261	 0.000000 
Pt27	 0.822768	 0.139808	 0.000000 
Pt28	 0.883139	 0.123632	 0.500000 
Pt29	 0.806592	 0.079438	 0.500000 
Pt30	 0.746222	 0.095614	 0.000000 
Pt31	 0.702028	 0.172160	 0.000000 
Pt32	 0.762398	 0.155984	 0.500000 
Pt33	 0.685852	 0.111790	 0.500000 
Pt34	 0.625481	 0.127966	 0.000000 
Pt35	 0.581287	 0.204513	 0.000000 
Pt36	 0.641657	 0.188336	 0.500000 
Pt37	 0.565111	 0.144142	 0.500000 
Pt38	 0.504740	 0.160318	 0.000000 
Pt39	 0.460546	 0.236865	 0.000000 
Pt40	 0.520917	 0.220689	 0.500000 
Pt41	 0.444370	 0.176495	 0.500000 
Pt42	 0.384000	 0.192671	 0.000000 
Pt43	 0.339806	 0.269217	 0.000000 
Pt44	 0.400176	 0.253041	 0.500000 
Pt45	 0.323629	 0.208847	 0.500000 
Pt46	 0.263259	 0.225023	 0.000000 
Pt47	 0.219065	 0.301570	 0.000000 
Pt48	 0.279435	 0.285394	 0.500000 
Pt49	 0.202889	 0.241199	 0.500000 
Pt50	 0.142518	 0.257376	 0.000000 
Pt51	 0.098324	 0.333922	 0.000000 
Pt52	 0.158694	 0.317746	 0.500000 
Pt53	 0.082148	 0.273552	 0.500000 
Pt54	 0.021778	 0.289728	 0.000000 
Pt55	 0.037954	 0.350098	 0.500000 
Pt56	 0.899315	 0.184002	 0.000000 
Pt57	 0.855121	 0.260549	 0.000000 
Pt58	 0.915491	 0.244372	 0.500000 
Pt59	 0.838945	 0.200178	 0.500000 
Pt60	 0.778574	 0.216354	 0.000000 
Pt61	 0.734380	 0.292901	 0.000000 
Pt62	 0.794750	 0.276725	 0.500000 
Pt63	 0.718204	 0.232531	 0.500000 
Pt64	 0.657834	 0.248707	 0.000000 
Pt65	 0.613639	 0.325253	 0.000000 
Pt66	 0.674010	 0.309077	 0.500000 
Pt67	 0.597463	 0.264883	 0.500000 
Pt68	 0.537093	 0.281059	 0.000000 
Pt69	 0.492899	 0.357606	 0.000000 
Pt70	 0.553269	 0.341430	 0.500000 
Pt71	 0.476722	 0.297235	 0.500000 
Pt72	 0.416352	 0.313412	 0.000000 
Pt73	 0.372158	 0.389958	 0.000000 
Pt74	 0.432528	 0.373782	 0.500000 
Pt75	 0.355982	 0.329588	 0.500000 
Pt76	 0.295611	 0.345764	 0.000000 
Pt77	 0.251417	 0.422311	 0.000000 
Pt78	 0.311788	 0.406134	 0.500000 
Pt79	 0.235241	 0.361940	 0.500000 
Pt80	 0.174871	 0.378116	 0.000000 
Pt81	 0.130676	 0.454663	 0.000000 
Pt82	 0.191047	 0.438487	 0.500000 
Pt83	 0.114500	 0.394293	 0.500000 
Pt84	 0.054130	 0.410469	 0.000000 
Pt85	 0.009936	 0.487015	 0.000000 
Pt86	 0.070306	 0.470839	 0.500000 
Pt87	 0.931667	 0.304743	 0.000000 
Pt88	 0.887473	 0.381289	 0.000000 
Pt89	 0.947844	 0.365113	 0.500000 
Pt90	 0.871297	 0.320919	 0.500000 
Pt91	 0.810927	 0.337095	 0.000000 
Pt92	 0.766732	 0.413642	 0.000000 
Pt93	 0.827103	 0.397466	 0.500000 
Pt94	 0.750556	 0.353271	 0.500000 
Pt95	 0.690186	 0.369448	 0.000000 
Pt96	 0.645992	 0.445994	 0.000000 
Pt97	 0.706362	 0.429818	 0.500000 
Pt98	 0.629816	 0.385624	 0.500000 
Pt99	 0.569445	 0.401800	 0.000000 
Pt100	 0.525251	 0.478346	 0.000000 
Pt101	 0.585621	 0.462170	 0.500000 
Pt102	 0.509075	 0.417976	 0.500000 
Pt103	 0.448704	 0.434152	 0.000000 
Pt104	 0.404510	 0.510699	 0.000000 
Pt105	 0.464881	 0.494523	 0.500000 
Pt106	 0.388334	 0.450328	 0.500000 
Pt107	 0.327964	 0.466505	 0.000000 
Pt108	 0.283770	 0.543051	 0.000000 
Pt109	 0.344140	 0.526875	 0.500000 
Pt110	 0.267593	 0.482681	 0.500000 
Pt111	 0.207223	 0.498857	 0.000000 
Pt112	 0.163029	 0.575404	 0.000000 
Pt113	 0.223399	 0.559227	 0.500000 
Pt114	 0.146853	 0.515033	 0.500000 
Pt115	 0.086482	 0.531209	 0.000000 
Pt116	 0.042288	 0.607756	 0.000000 
Pt117	 0.102658	 0.591580	 0.500000 
Pt118	 0.026112	 0.547386	 0.500000 
Pt119	 0.964020	 0.425484	 0.000000 
Pt120	 0.919826	 0.502030	 0.000000 
Pt121	 0.980196	 0.485854	 0.500000 
Pt122	 0.903649	 0.441660	 0.500000 
Pt123	 0.843279	 0.457836	 0.000000 
Pt124	 0.799085	 0.534382	 0.000000 
Pt125	 0.859455	 0.518206	 0.500000 
Pt126	 0.782909	 0.474012	 0.500000 
Pt127	 0.722538	 0.490188	 0.000000 
Pt128	 0.678344	 0.566735	 0.000000 
Pt129	 0.738715	 0.550559	 0.500000 
Pt130	 0.662168	 0.506364	 0.500000 
Pt131	 0.601798	 0.522541	 0.000000 
Pt132	 0.557603	 0.599087	 0.000000 
Pt133	 0.617974	 0.582911	 0.500000 
Pt134	 0.541427	 0.538717	 0.500000 
Pt135	 0.481057	 0.554893	 0.000000 
Pt136	 0.436863	 0.631440	 0.000000 
Pt137	 0.497233	 0.615263	 0.500000 
Pt138	 0.420686	 0.571069	 0.500000 
Pt139	 0.360316	 0.587245	 0.000000 
Pt140	 0.316122	 0.663792	 0.000000 
Pt141	 0.376492	 0.647616	 0.500000 
Pt142	 0.299946	 0.603422	 0.500000 
Pt143	 0.239575	 0.619598	 0.000000 
Pt144	 0.195381	 0.696144	 0.000000 
Pt145	 0.255752	 0.679968	 0.500000 
Pt146	 0.179205	 0.635774	 0.500000 
Pt147	 0.118835	 0.651950	 0.000000 
Pt148	 0.074641	 0.728497	 0.000000 
Pt149	 0.135011	 0.712321	 0.500000 
Pt150	 0.058464	 0.668126	 0.500000 
Pt151	 0.996372	 0.546224	 0.000000 
Pt152	 0.952178	 0.622771	 0.000000 
Pt153	 0.936002	 0.562400	 0.500000 
Pt154	 0.875631	 0.578577	 0.000000 
Pt155	 0.831437	 0.655123	 0.000000 
Pt156	 0.891808	 0.638947	 0.500000 
Pt157	 0.815261	 0.594753	 0.500000 
Pt158	 0.754891	 0.610929	 0.000000 
Pt159	 0.710697	 0.687476	 0.000000 
Pt160	 0.771067	 0.671299	 0.500000 
Pt161	 0.694520	 0.627105	 0.500000 
Pt162	 0.634150	 0.643281	 0.000000 
Pt163	 0.589956	 0.719828	 0.000000 
Pt164	 0.650326	 0.703652	 0.500000 
Pt165	 0.573780	 0.659458	 0.500000 
Pt166	 0.513409	 0.675634	 0.000000 
Pt167	 0.469215	 0.752180	 0.000000 
Pt168	 0.529585	 0.736004	 0.500000 
Pt169	 0.453039	 0.691810	 0.500000 
Pt170	 0.392669	 0.707986	 0.000000 
Pt171	 0.348474	 0.784533	 0.000000 
Pt172	 0.408845	 0.768357	 0.500000 
Pt173	 0.332298	 0.724162	 0.500000 
Pt174	 0.271928	 0.740339	 0.000000 
Pt175	 0.227734	 0.816885	 0.000000 
Pt176	 0.288104	 0.800709	 0.500000 
Pt177	 0.211557	 0.756515	 0.500000 
Pt178	 0.151187	 0.772691	 0.000000 
Pt179	 0.106993	 0.849237	 0.000000 
Pt180	 0.167363	 0.833061	 0.500000 
Pt181	 0.090817	 0.788867	 0.500000 
Pt182	 0.984530	 0.743512	 0.000000 
Pt183	 0.968354	 0.683141	 0.500000 
Pt184	 0.907984	 0.699317	 0.000000 
Pt185	 0.863790	 0.775864	 0.000000 
Pt186	 0.924160	 0.759688	 0.500000 
Pt187	 0.847613	 0.715494	 0.500000 
Pt188	 0.787243	 0.731670	 0.000000 
Pt189	 0.743049	 0.808216	 0.000000 
Pt190	 0.803419	 0.792040	 0.500000 
Pt191	 0.726873	 0.747846	 0.500000 
Pt192	 0.666502	 0.764022	 0.000000 
Pt193	 0.622308	 0.840569	 0.000000 
Pt194	 0.682679	 0.824392	 0.500000 
Pt195	 0.606132	 0.780198	 0.500000 
Pt196	 0.545762	 0.796374	 0.000000 
Pt197	 0.501567	 0.872921	 0.000000 
Pt198	 0.561938	 0.856745	 0.500000 
Pt199	 0.485391	 0.812551	 0.500000 
Pt200	 0.425021	 0.828727	 0.000000 
Pt201	 0.380827	 0.905273	 0.000000 
Pt202	 0.441197	 0.889097	 0.500000 
Pt203	 0.364651	 0.844903	 0.500000 
Pt204	 0.304280	 0.861079	 0.000000 
Pt205	 0.260086	 0.937626	 0.000000 
Pt206	 0.320456	 0.921450	 0.500000 
Pt207	 0.243910	 0.877255	 0.500000 
Pt208	 0.183539	 0.893432	 0.000000 
Pt209	 0.139345	 0.969978	 0.000000 
Pt210	 0.199716	 0.953802	 0.500000 
Pt211	 0.123169	 0.909608	 0.500000 
Pt212	 0.940336	 0.820058	 0.000000 
Pt213	 0.896142	 0.896605	 0.000000 
Pt214	 0.956512	 0.880428	 0.500000 
Pt215	 0.879966	 0.836234	 0.500000 
Pt216	 0.819595	 0.852410	 0.000000 
Pt217	 0.775401	 0.928957	 0.000000 
Pt218	 0.835772	 0.912781	 0.500000 
Pt219	 0.759225	 0.868587	 0.500000 
Pt220	 0.698855	 0.884763	 0.000000 
Pt221	 0.654661	 0.961309	 0.000000 
Pt222	 0.715031	 0.945133	 0.500000 
Pt223	 0.638484	 0.900939	 0.500000 
Pt224	 0.578114	 0.917115	 0.000000 
Pt225	 0.533920	 0.993662	 0.000000 
Pt226	 0.594290	 0.977486	 0.500000 
Pt227	 0.517744	 0.933291	 0.500000 
Pt228	 0.457373	 0.949468	 0.000000 
Pt229	 0.397003	 0.965644	 0.500000 
Pt230	 0.336633	 0.981820	 0.000000 
Pt231	 0.276262	 0.997996	 0.500000 
#                 ---end-of-data-block---
