data_Pt structure along [001] nx 8 ny 8 nz 1
_cell_length_a               31.360000
_cell_length_b               31.360000
_cell_length_c               3.920000
_cell_angle_alpha          90.000000
_cell_angle_beta           90.000000
_cell_angle_gamma          90.000000
_symmetry_cell_setting          Triclinic
_symmetry_space_group_name_H-M 'P 1' 
loop_
_atom_site_label
_atom_site_fract_x
_atom_site_fract_y
_atom_site_fract_z
Pt1	 0.704722	 0.023670	 0.000000 
Pt2	 0.765093	 0.007494	 0.500000 
Pt3	 0.583982	 0.056023	 0.000000 
Pt4	 0.644352	 0.039846	 0.500000 
Pt5	 0.507435	 0.011828	 0.000000 
Pt6	 0.463241	 0.088375	 0.000000 
Pt7	 0.523611	 0.072199	 0.500000 
Pt8	 0.447065	 0.028005	 0.500000 
Pt9	 0.386694	 0.044181	 0.000000 
Pt10	 0.342500	 0.120727	 0.000000 
Pt11	 0.402871	 0.104551	 0.500000 
Pt12	 0.326324	 0.060357	 0.500000 
Pt13	 0.265954	 0.076533	 0.000000 
Pt14	 0.221759	 0.153080	 0.000000 
Pt15	 0.282130	 0.136904	 0.500000 
Pt16	 0.205583	 0.092709	 0.500000 
Pt17	 0.145213	 0.108886	 0.000000 
Pt18	 0.101019	 0.185432	 0.000000 
Pt19	 0.161389	 0.169256	 0.500000 
Pt20	 0.084843	 0.125062	 0.500000 
Pt21	 0.024472	 0.141238	 0.000000 
Pt22	 0.040648	 0.201608	 0.500000 
Pt23	 0.781269	 0.067864	 0.000000 
Pt24	 0.737075	 0.144411	 0.000000 
Pt25	 0.797445	 0.128235	 0.500000 
Pt26	 0.720899	 0.084041	 0.500000 
Pt27	 0.660528	 0.100217	 0.000000 
Pt28	 0.616334	 0.176763	 0.000000 
Pt29	 0.676704	 0.160587	 0.500000 
Pt30	 0.600158	 0.116393	 0.500000 
Pt31	 0.539787	 0.132569	 0.000000 
Pt32	 0.495593	 0.209116	 0.000000 
Pt33	 0.555964	 0.192939	 0.500000 
Pt34	 0.479417	 0.148745	 0.500000 
Pt35	 0.419047	 0.164921	 0.000000 
Pt36	 0.374853	 0.241468	 0.000000 
Pt37	 0.435223	 0.225292	 0.500000 
Pt38	 0.358676	 0.181098	 0.500000 
Pt39	 0.298306	 0.197274	 0.000000 
Pt40	 0.254112	 0.273820	 0.000000 
Pt41	 0.314482	 0.257644	 0.500000 
Pt42	 0.237936	 0.213450	 0.500000 
Pt43	 0.177565	 0.229626	 0.000000 
Pt44	 0.133371	 0.306173	 0.000000 
Pt45	 0.193741	 0.289997	 0.500000 
Pt46	 0.117195	 0.245802	 0.500000 
Pt47	 0.056825	 0.261979	 0.000000 
Pt48	 0.012630	 0.338525	 0.000000 
Pt49	 0.073001	 0.322349	 0.500000 
Pt50	 0.857815	 0.112059	 0.000000 
Pt51	 0.841639	 0.051688	 0.500000 
Pt52	 0.813621	 0.188605	 0.000000 
Pt53	 0.769427	 0.265152	 0.000000 
Pt54	 0.829797	 0.248975	 0.500000 
Pt55	 0.753251	 0.204781	 0.500000 
Pt56	 0.692881	 0.220957	 0.000000 
Pt57	 0.648686	 0.297504	 0.000000 
Pt58	 0.709057	 0.281328	 0.500000 
Pt59	 0.632510	 0.237134	 0.500000 
Pt60	 0.572140	 0.253310	 0.000000 
Pt61	 0.527946	 0.329856	 0.000000 
Pt62	 0.588316	 0.313680	 0.500000 
Pt63	 0.511769	 0.269486	 0.500000 
Pt64	 0.451399	 0.285662	 0.000000 
Pt65	 0.407205	 0.362209	 0.000000 
Pt66	 0.467575	 0.346033	 0.500000 
Pt67	 0.391029	 0.301838	 0.500000 
Pt68	 0.330658	 0.318015	 0.000000 
Pt69	 0.286464	 0.394561	 0.000000 
Pt70	 0.346835	 0.378385	 0.500000 
Pt71	 0.270288	 0.334191	 0.500000 
Pt72	 0.209918	 0.350367	 0.000000 
Pt73	 0.165723	 0.426914	 0.000000 
Pt74	 0.226094	 0.410737	 0.500000 
Pt75	 0.149547	 0.366543	 0.500000 
Pt76	 0.089177	 0.382719	 0.000000 
Pt77	 0.044983	 0.459266	 0.000000 
Pt78	 0.105353	 0.443090	 0.500000 
Pt79	 0.028807	 0.398896	 0.500000 
Pt80	 0.890168	 0.232799	 0.000000 
Pt81	 0.873992	 0.172429	 0.500000 
Pt82	 0.845974	 0.309346	 0.000000 
Pt83	 0.801780	 0.385892	 0.000000 
Pt84	 0.862150	 0.369716	 0.500000 
Pt85	 0.785603	 0.325522	 0.500000 
Pt86	 0.725233	 0.341698	 0.000000 
Pt87	 0.681039	 0.418245	 0.000000 
Pt88	 0.741409	 0.402069	 0.500000 
Pt89	 0.664863	 0.357874	 0.500000 
Pt90	 0.604492	 0.374051	 0.000000 
Pt91	 0.560298	 0.450597	 0.000000 
Pt92	 0.620668	 0.434421	 0.500000 
Pt93	 0.544122	 0.390227	 0.500000 
Pt94	 0.483751	 0.406403	 0.000000 
Pt95	 0.439557	 0.482950	 0.000000 
Pt96	 0.499928	 0.466773	 0.500000 
Pt97	 0.423381	 0.422579	 0.500000 
Pt98	 0.363011	 0.438755	 0.000000 
Pt99	 0.318817	 0.515302	 0.000000 
Pt100	 0.379187	 0.499126	 0.500000 
Pt101	 0.302640	 0.454932	 0.500000 
Pt102	 0.242270	 0.471108	 0.000000 
Pt103	 0.198076	 0.547654	 0.000000 
Pt104	 0.258446	 0.531478	 0.500000 
Pt105	 0.181900	 0.487284	 0.500000 
Pt106	 0.121529	 0.503460	 0.000000 
Pt107	 0.077335	 0.580007	 0.000000 
Pt108	 0.137706	 0.563830	 0.500000 
Pt109	 0.061159	 0.519636	 0.500000 
Pt110	 0.000789	 0.535812	 0.000000 
Pt111	 0.922520	 0.353540	 0.000000 
Pt112	 0.016965	 0.596183	 0.500000 
Pt113	 0.906344	 0.293170	 0.500000 
Pt114	 0.878326	 0.430087	 0.000000 
Pt115	 0.834132	 0.506633	 0.000000 
Pt116	 0.894502	 0.490457	 0.500000 
Pt117	 0.817956	 0.446263	 0.500000 
Pt118	 0.757585	 0.462439	 0.000000 
Pt119	 0.713391	 0.538985	 0.000000 
Pt120	 0.773762	 0.522809	 0.500000 
Pt121	 0.697215	 0.478615	 0.500000 
Pt122	 0.636845	 0.494791	 0.000000 
Pt123	 0.592650	 0.571338	 0.000000 
Pt124	 0.653021	 0.555162	 0.500000 
Pt125	 0.576474	 0.510967	 0.500000 
Pt126	 0.516104	 0.527144	 0.000000 
Pt127	 0.471910	 0.603690	 0.000000 
Pt128	 0.532280	 0.587514	 0.500000 
Pt129	 0.455734	 0.543320	 0.500000 
Pt130	 0.395363	 0.559496	 0.000000 
Pt131	 0.351169	 0.636043	 0.000000 
Pt132	 0.411539	 0.619866	 0.500000 
Pt133	 0.334993	 0.575672	 0.500000 
Pt134	 0.274622	 0.591848	 0.000000 
Pt135	 0.230428	 0.668395	 0.000000 
Pt136	 0.290799	 0.652219	 0.500000 
Pt137	 0.214252	 0.608025	 0.500000 
Pt138	 0.153882	 0.624201	 0.000000 
Pt139	 0.109688	 0.700747	 0.000000 
Pt140	 0.170058	 0.684571	 0.500000 
Pt141	 0.093511	 0.640377	 0.500000 
Pt142	 0.033141	 0.656553	 0.000000 
Pt143	 0.954873	 0.474281	 0.000000 
Pt144	 0.049317	 0.716924	 0.500000 
Pt145	 0.938696	 0.413910	 0.500000 
Pt146	 0.910678	 0.550827	 0.000000 
Pt147	 0.866484	 0.627374	 0.000000 
Pt148	 0.926855	 0.611198	 0.500000 
Pt149	 0.850308	 0.567003	 0.500000 
Pt150	 0.789938	 0.583180	 0.000000 
Pt151	 0.745744	 0.659726	 0.000000 
Pt152	 0.806114	 0.643550	 0.500000 
Pt153	 0.729567	 0.599356	 0.500000 
Pt154	 0.669197	 0.615532	 0.000000 
Pt155	 0.625003	 0.692079	 0.000000 
Pt156	 0.685373	 0.675902	 0.500000 
Pt157	 0.608827	 0.631708	 0.500000 
Pt158	 0.548456	 0.647884	 0.000000 
Pt159	 0.504262	 0.724431	 0.000000 
Pt160	 0.564632	 0.708255	 0.500000 
Pt161	 0.488086	 0.664061	 0.500000 
Pt162	 0.427716	 0.680237	 0.000000 
Pt163	 0.383521	 0.756783	 0.000000 
Pt164	 0.443892	 0.740607	 0.500000 
Pt165	 0.367345	 0.696413	 0.500000 
Pt166	 0.306975	 0.712589	 0.000000 
Pt167	 0.262781	 0.789136	 0.000000 
Pt168	 0.323151	 0.772960	 0.500000 
Pt169	 0.246604	 0.728765	 0.500000 
Pt170	 0.186234	 0.744942	 0.000000 
Pt171	 0.142040	 0.821488	 0.000000 
Pt172	 0.202410	 0.805312	 0.500000 
Pt173	 0.125864	 0.761118	 0.500000 
Pt174	 0.065493	 0.777294	 0.000000 
Pt175	 0.987225	 0.595021	 0.000000 
Pt176	 0.081670	 0.837664	 0.500000 
Pt177	 0.971049	 0.534651	 0.500000 
Pt178	 0.943031	 0.671568	 0.000000 
Pt179	 0.898837	 0.748115	 0.000000 
Pt180	 0.959207	 0.731938	 0.500000 
Pt181	 0.882660	 0.687744	 0.500000 
Pt182	 0.822290	 0.703920	 0.000000 
Pt183	 0.778096	 0.780467	 0.000000 
Pt184	 0.838466	 0.764291	 0.500000 
Pt185	 0.761920	 0.720097	 0.500000 
Pt186	 0.701549	 0.736273	 0.000000 
Pt187	 0.657355	 0.812819	 0.000000 
Pt188	 0.717726	 0.796643	 0.500000 
Pt189	 0.641179	 0.752449	 0.500000 
Pt190	 0.580809	 0.768625	 0.000000 
Pt191	 0.536614	 0.845172	 0.000000 
Pt192	 0.596985	 0.828995	 0.500000 
Pt193	 0.520438	 0.784801	 0.500000 
Pt194	 0.460068	 0.800978	 0.000000 
Pt195	 0.415874	 0.877524	 0.000000 
Pt196	 0.476244	 0.861348	 0.500000 
Pt197	 0.399698	 0.817154	 0.500000 
Pt198	 0.339327	 0.833330	 0.000000 
Pt199	 0.295133	 0.909876	 0.000000 
Pt200	 0.355503	 0.893700	 0.500000 
Pt201	 0.278957	 0.849506	 0.500000 
Pt202	 0.218586	 0.865682	 0.000000 
Pt203	 0.174392	 0.942229	 0.000000 
Pt204	 0.234763	 0.926053	 0.500000 
Pt205	 0.158216	 0.881858	 0.500000 
Pt206	 0.097846	 0.898035	 0.000000 
Pt207	 0.114022	 0.958405	 0.500000 
Pt208	 0.975383	 0.792309	 0.000000 
Pt209	 0.931189	 0.868855	 0.000000 
Pt210	 0.991559	 0.852679	 0.500000 
Pt211	 0.915013	 0.808485	 0.500000 
Pt212	 0.854642	 0.824661	 0.000000 
Pt213	 0.810448	 0.901208	 0.000000 
Pt214	 0.870819	 0.885031	 0.500000 
Pt215	 0.794272	 0.840837	 0.500000 
Pt216	 0.733902	 0.857013	 0.000000 
Pt217	 0.689708	 0.933560	 0.000000 
Pt218	 0.750078	 0.917384	 0.500000 
Pt219	 0.673531	 0.873190	 0.500000 
Pt220	 0.613161	 0.889366	 0.000000 
Pt221	 0.568967	 0.965912	 0.000000 
Pt222	 0.629337	 0.949736	 0.500000 
Pt223	 0.552791	 0.905542	 0.500000 
Pt224	 0.492420	 0.921718	 0.000000 
Pt225	 0.448226	 0.998265	 0.000000 
Pt226	 0.508596	 0.982089	 0.500000 
Pt227	 0.432050	 0.937894	 0.500000 
Pt228	 0.371680	 0.954071	 0.000000 
Pt229	 0.311309	 0.970247	 0.500000 
Pt230	 0.250939	 0.986423	 0.000000 
#                 ---end-of-data-block---
