data_Pt structure along [001] nx 8 ny 8 nz 1
_cell_length_a               31.360000
_cell_length_b               31.360000
_cell_length_c               3.920000
_cell_angle_alpha          90.000000
_cell_angle_beta           90.000000
_cell_angle_gamma          90.000000
_symmetry_cell_setting          Triclinic
_symmetry_space_group_name_H-M 'P 1' 
loop_
_atom_site_label
_atom_site_fract_x
_atom_site_fract_y
_atom_site_fract_z
Pt1	 0.791315	 0.004319	 0.000000 
Pt2	 0.747121	 0.080866	 0.000000 
Pt3	 0.807491	 0.064690	 0.500000 
Pt4	 0.730945	 0.020495	 0.500000 
Pt5	 0.670574	 0.036672	 0.000000 
Pt6	 0.626380	 0.113218	 0.000000 
Pt7	 0.686750	 0.097042	 0.500000 
Pt8	 0.610204	 0.052848	 0.500000 
Pt9	 0.549834	 0.069024	 0.000000 
Pt10	 0.505639	 0.145571	 0.000000 
Pt11	 0.566010	 0.129394	 0.500000 
Pt12	 0.489463	 0.085200	 0.500000 
Pt13	 0.429093	 0.101376	 0.000000 
Pt14	 0.384899	 0.177923	 0.000000 
Pt15	 0.445269	 0.161747	 0.500000 
Pt16	 0.368722	 0.117553	 0.500000 
Pt17	 0.308352	 0.133729	 0.000000 
Pt18	 0.264158	 0.210275	 0.000000 
Pt19	 0.324528	 0.194099	 0.500000 
Pt20	 0.247982	 0.149905	 0.500000 
Pt21	 0.187611	 0.166081	 0.000000 
Pt22	 0.143417	 0.242628	 0.000000 
Pt23	 0.203788	 0.226452	 0.500000 
Pt24	 0.127241	 0.182257	 0.500000 
Pt25	 0.066871	 0.198434	 0.000000 
Pt26	 0.022676	 0.274980	 0.000000 
Pt27	 0.083047	 0.258804	 0.500000 
Pt28	 0.006500	 0.214610	 0.500000 
Pt29	 0.867862	 0.048513	 0.000000 
Pt30	 0.823667	 0.125060	 0.000000 
Pt31	 0.779473	 0.201607	 0.000000 
Pt32	 0.839844	 0.185430	 0.500000 
Pt33	 0.763297	 0.141236	 0.500000 
Pt34	 0.702927	 0.157412	 0.000000 
Pt35	 0.658732	 0.233959	 0.000000 
Pt36	 0.719103	 0.217783	 0.500000 
Pt37	 0.642556	 0.173589	 0.500000 
Pt38	 0.582186	 0.189765	 0.000000 
Pt39	 0.537992	 0.266311	 0.000000 
Pt40	 0.598362	 0.250135	 0.500000 
Pt41	 0.521816	 0.205941	 0.500000 
Pt42	 0.461445	 0.222117	 0.000000 
Pt43	 0.417251	 0.298664	 0.000000 
Pt44	 0.477621	 0.282487	 0.500000 
Pt45	 0.401075	 0.238293	 0.500000 
Pt46	 0.340704	 0.254470	 0.000000 
Pt47	 0.296510	 0.331016	 0.000000 
Pt48	 0.356881	 0.314840	 0.500000 
Pt49	 0.280334	 0.270646	 0.500000 
Pt50	 0.219964	 0.286822	 0.000000 
Pt51	 0.175770	 0.363368	 0.000000 
Pt52	 0.236140	 0.347192	 0.500000 
Pt53	 0.159593	 0.302998	 0.500000 
Pt54	 0.099223	 0.319174	 0.000000 
Pt55	 0.055029	 0.395721	 0.000000 
Pt56	 0.115399	 0.379545	 0.500000 
Pt57	 0.038853	 0.335350	 0.500000 
Pt58	 0.900214	 0.169254	 0.000000 
Pt59	 0.884038	 0.108884	 0.500000 
Pt60	 0.856020	 0.245801	 0.000000 
Pt61	 0.811826	 0.322347	 0.000000 
Pt62	 0.872196	 0.306171	 0.500000 
Pt63	 0.795649	 0.261977	 0.500000 
Pt64	 0.735279	 0.278153	 0.000000 
Pt65	 0.691085	 0.354700	 0.000000 
Pt66	 0.751455	 0.338523	 0.500000 
Pt67	 0.674909	 0.294329	 0.500000 
Pt68	 0.614538	 0.310505	 0.000000 
Pt69	 0.570344	 0.387052	 0.000000 
Pt70	 0.630714	 0.370876	 0.500000 
Pt71	 0.554168	 0.326682	 0.500000 
Pt72	 0.493798	 0.342858	 0.000000 
Pt73	 0.449603	 0.419404	 0.000000 
Pt74	 0.509974	 0.403228	 0.500000 
Pt75	 0.433427	 0.359034	 0.500000 
Pt76	 0.373057	 0.375210	 0.000000 
Pt77	 0.328863	 0.451757	 0.000000 
Pt78	 0.389233	 0.435581	 0.500000 
Pt79	 0.312686	 0.391386	 0.500000 
Pt80	 0.252316	 0.407563	 0.000000 
Pt81	 0.208122	 0.484109	 0.000000 
Pt82	 0.268492	 0.467933	 0.500000 
Pt83	 0.191946	 0.423739	 0.500000 
Pt84	 0.131575	 0.439915	 0.000000 
Pt85	 0.087381	 0.516462	 0.000000 
Pt86	 0.147752	 0.500285	 0.500000 
Pt87	 0.071205	 0.456091	 0.500000 
Pt88	 0.010835	 0.472267	 0.000000 
Pt89	 0.932566	 0.289995	 0.000000 
Pt90	 0.027011	 0.532638	 0.500000 
Pt91	 0.916390	 0.229625	 0.500000 
Pt92	 0.888372	 0.366541	 0.000000 
Pt93	 0.844178	 0.443088	 0.000000 
Pt94	 0.904548	 0.426912	 0.500000 
Pt95	 0.828002	 0.382718	 0.500000 
Pt96	 0.767631	 0.398894	 0.000000 
Pt97	 0.723437	 0.475440	 0.000000 
Pt98	 0.783808	 0.459264	 0.500000 
Pt99	 0.707261	 0.415070	 0.500000 
Pt100	 0.646891	 0.431246	 0.000000 
Pt101	 0.602697	 0.507793	 0.000000 
Pt102	 0.663067	 0.491617	 0.500000 
Pt103	 0.586520	 0.447422	 0.500000 
Pt104	 0.526150	 0.463599	 0.000000 
Pt105	 0.481956	 0.540145	 0.000000 
Pt106	 0.542326	 0.523969	 0.500000 
Pt107	 0.465780	 0.479775	 0.500000 
Pt108	 0.405409	 0.495951	 0.000000 
Pt109	 0.361215	 0.572498	 0.000000 
Pt110	 0.421585	 0.556321	 0.500000 
Pt111	 0.345039	 0.512127	 0.500000 
Pt112	 0.284668	 0.528303	 0.000000 
Pt113	 0.240474	 0.604850	 0.000000 
Pt114	 0.300845	 0.588674	 0.500000 
Pt115	 0.224298	 0.544480	 0.500000 
Pt116	 0.163928	 0.560656	 0.000000 
Pt117	 0.119734	 0.637202	 0.000000 
Pt118	 0.180104	 0.621026	 0.500000 
Pt119	 0.103557	 0.576832	 0.500000 
Pt120	 0.043187	 0.593008	 0.000000 
Pt121	 0.964919	 0.410736	 0.000000 
Pt122	 0.059363	 0.653378	 0.500000 
Pt123	 0.948743	 0.350365	 0.500000 
Pt124	 0.920725	 0.487282	 0.000000 
Pt125	 0.876530	 0.563829	 0.000000 
Pt126	 0.936901	 0.547653	 0.500000 
Pt127	 0.860354	 0.503458	 0.500000 
Pt128	 0.799984	 0.519635	 0.000000 
Pt129	 0.755790	 0.596181	 0.000000 
Pt130	 0.816160	 0.580005	 0.500000 
Pt131	 0.739613	 0.535811	 0.500000 
Pt132	 0.679243	 0.551987	 0.000000 
Pt133	 0.635049	 0.628533	 0.000000 
Pt134	 0.695419	 0.612357	 0.500000 
Pt135	 0.618873	 0.568163	 0.500000 
Pt136	 0.558502	 0.584339	 0.000000 
Pt137	 0.514308	 0.660886	 0.000000 
Pt138	 0.574679	 0.644710	 0.500000 
Pt139	 0.498132	 0.600516	 0.500000 
Pt140	 0.437762	 0.616692	 0.000000 
Pt141	 0.393567	 0.693238	 0.000000 
Pt142	 0.453938	 0.677062	 0.500000 
Pt143	 0.377391	 0.632868	 0.500000 
Pt144	 0.317021	 0.649044	 0.000000 
Pt145	 0.272827	 0.725591	 0.000000 
Pt146	 0.333197	 0.709414	 0.500000 
Pt147	 0.256651	 0.665220	 0.500000 
Pt148	 0.196280	 0.681396	 0.000000 
Pt149	 0.152086	 0.757943	 0.000000 
Pt150	 0.212456	 0.741767	 0.500000 
Pt151	 0.135910	 0.697573	 0.500000 
Pt152	 0.075539	 0.713749	 0.000000 
Pt153	 0.997271	 0.531476	 0.000000 
Pt154	 0.091716	 0.774119	 0.500000 
Pt155	 0.981095	 0.471106	 0.500000 
Pt156	 0.953077	 0.608023	 0.000000 
Pt157	 0.908883	 0.684569	 0.000000 
Pt158	 0.969253	 0.668393	 0.500000 
Pt159	 0.892707	 0.624199	 0.500000 
Pt160	 0.832336	 0.640375	 0.000000 
Pt161	 0.788142	 0.716922	 0.000000 
Pt162	 0.848512	 0.700746	 0.500000 
Pt163	 0.771966	 0.656551	 0.500000 
Pt164	 0.711595	 0.672728	 0.000000 
Pt165	 0.667401	 0.749274	 0.000000 
Pt166	 0.727772	 0.733098	 0.500000 
Pt167	 0.651225	 0.688904	 0.500000 
Pt168	 0.590855	 0.705080	 0.000000 
Pt169	 0.546661	 0.781627	 0.000000 
Pt170	 0.607031	 0.765450	 0.500000 
Pt171	 0.530484	 0.721256	 0.500000 
Pt172	 0.470114	 0.737432	 0.000000 
Pt173	 0.425920	 0.813979	 0.000000 
Pt174	 0.486290	 0.797803	 0.500000 
Pt175	 0.409744	 0.753609	 0.500000 
Pt176	 0.349373	 0.769785	 0.000000 
Pt177	 0.305179	 0.846331	 0.000000 
Pt178	 0.365549	 0.830155	 0.500000 
Pt179	 0.289003	 0.785961	 0.500000 
Pt180	 0.228633	 0.802137	 0.000000 
Pt181	 0.184438	 0.878684	 0.000000 
Pt182	 0.244809	 0.862508	 0.500000 
Pt183	 0.168262	 0.818313	 0.500000 
Pt184	 0.107892	 0.834490	 0.000000 
Pt185	 0.124068	 0.894860	 0.500000 
Pt186	 0.985429	 0.728764	 0.000000 
Pt187	 0.941235	 0.805310	 0.000000 
Pt188	 0.925059	 0.744940	 0.500000 
Pt189	 0.864689	 0.761116	 0.000000 
Pt190	 0.820494	 0.837663	 0.000000 
Pt191	 0.880865	 0.821486	 0.500000 
Pt192	 0.804318	 0.777292	 0.500000 
Pt193	 0.743948	 0.793468	 0.000000 
Pt194	 0.699754	 0.870015	 0.000000 
Pt195	 0.760124	 0.853839	 0.500000 
Pt196	 0.683577	 0.809645	 0.500000 
Pt197	 0.623207	 0.825821	 0.000000 
Pt198	 0.579013	 0.902367	 0.000000 
Pt199	 0.639383	 0.886191	 0.500000 
Pt200	 0.562837	 0.841997	 0.500000 
Pt201	 0.502466	 0.858173	 0.000000 
Pt202	 0.458272	 0.934720	 0.000000 
Pt203	 0.518643	 0.918544	 0.500000 
Pt204	 0.442096	 0.874349	 0.500000 
Pt205	 0.381726	 0.890526	 0.000000 
Pt206	 0.337531	 0.967072	 0.000000 
Pt207	 0.397902	 0.950896	 0.500000 
Pt208	 0.321355	 0.906702	 0.500000 
Pt209	 0.260985	 0.922878	 0.000000 
Pt210	 0.216791	 0.999424	 0.000000 
Pt211	 0.277161	 0.983248	 0.500000 
Pt212	 0.200615	 0.939054	 0.500000 
Pt213	 0.140244	 0.955230	 0.000000 
Pt214	 0.957411	 0.865681	 0.500000 
Pt215	 0.897041	 0.881857	 0.000000 
Pt216	 0.836671	 0.898033	 0.500000 
Pt217	 0.776300	 0.914209	 0.000000 
Pt218	 0.473287	 0.024830	 0.000000 
Pt219	 0.533657	 0.008654	 0.500000 
Pt220	 0.715930	 0.930385	 0.500000 
Pt221	 0.655559	 0.946561	 0.000000 
Pt222	 0.352546	 0.057182	 0.000000 
Pt223	 0.412917	 0.041006	 0.500000 
Pt224	 0.595189	 0.962738	 0.500000 
Pt225	 0.534819	 0.978914	 0.000000 
Pt226	 0.231806	 0.089535	 0.000000 
Pt227	 0.292176	 0.073358	 0.500000 
Pt228	 0.474448	 0.995090	 0.500000 
Pt229	 0.111065	 0.121887	 0.000000 
Pt230	 0.171435	 0.105711	 0.500000 
Pt231	 0.050694	 0.138063	 0.500000 
#                 ---end-of-data-block---
