data_Pt structure along [001] nx 11 ny 8 nz 1
_cell_length_a               31.360000
_cell_length_b               31.360000
_cell_length_c               2.771859
_cell_angle_alpha          90.000000
_cell_angle_beta           90.000000
_cell_angle_gamma          90.000000
_symmetry_cell_setting          Triclinic
_symmetry_space_group_name_H-M 'P 1' 
loop_
_atom_site_label
_atom_site_fract_x
_atom_site_fract_y
_atom_site_fract_z
Co1	 0.214766	 0.022089	 0.500000 
Co2	 0.155901	 0.071021	 0.000000 
Co3	 0.182413	 0.142829	 0.500000 
Co4	 0.123549	 0.191761	 0.000000 
Co5	 0.150061	 0.263570	 0.500000 
Co6	 0.091196	 0.312502	 0.000000 
Co7	 0.117708	 0.384311	 0.500000 
Co8	 0.058844	 0.433243	 0.000000 
Co9	 0.085356	 0.505052	 0.500000 
Co10	 0.026492	 0.553984	 0.000000 
Co11	 0.053004	 0.625792	 0.500000 
Co12	 0.020651	 0.746533	 0.500000 
Co13	 0.300142	 0.044965	 0.500000 
Co14	 0.241278	 0.093897	 0.000000 
Co15	 0.267790	 0.165706	 0.500000 
Co16	 0.208925	 0.214638	 0.000000 
Co17	 0.235437	 0.286447	 0.500000 
Co18	 0.176573	 0.335379	 0.000000 
Co19	 0.203085	 0.407187	 0.500000 
Co20	 0.144221	 0.456120	 0.000000 
Co21	 0.170733	 0.527928	 0.500000 
Co22	 0.111868	 0.576860	 0.000000 
Co23	 0.138380	 0.648669	 0.500000 
Co24	 0.079516	 0.697601	 0.000000 
Co25	 0.106028	 0.769410	 0.500000 
Co26	 0.047163	 0.818342	 0.000000 
Co27	 0.073675	 0.890150	 0.500000 
Co28	 0.385519	 0.067842	 0.500000 
Co29	 0.326654	 0.116774	 0.000000 
Co30	 0.353166	 0.188583	 0.500000 
Co31	 0.294302	 0.237515	 0.000000 
Co32	 0.320814	 0.309323	 0.500000 
Co33	 0.261949	 0.358255	 0.000000 
Co34	 0.288462	 0.430064	 0.500000 
Co35	 0.229597	 0.478996	 0.000000 
Co36	 0.256109	 0.550805	 0.500000 
Co37	 0.197245	 0.599737	 0.000000 
Co38	 0.223757	 0.671546	 0.500000 
Co39	 0.164892	 0.720478	 0.000000 
Co40	 0.191404	 0.792286	 0.500000 
Co41	 0.132540	 0.841218	 0.000000 
Co42	 0.159052	 0.913027	 0.500000 
Co43	 0.444383	 0.018910	 0.000000 
Co44	 0.470895	 0.090718	 0.500000 
Co45	 0.412031	 0.139651	 0.000000 
Co46	 0.438543	 0.211459	 0.500000 
Co47	 0.379678	 0.260391	 0.000000 
Co48	 0.406191	 0.332200	 0.500000 
Co49	 0.347326	 0.381132	 0.000000 
Co50	 0.373838	 0.452941	 0.500000 
Co51	 0.314974	 0.501873	 0.000000 
Co52	 0.341486	 0.573681	 0.500000 
Co53	 0.282621	 0.622613	 0.000000 
Co54	 0.309133	 0.694422	 0.500000 
Co55	 0.250269	 0.743354	 0.000000 
Co56	 0.276781	 0.815163	 0.500000 
Co57	 0.217917	 0.864095	 0.000000 
Co58	 0.244429	 0.935904	 0.500000 
Co59	 0.529760	 0.041786	 0.000000 
Co60	 0.556272	 0.113595	 0.500000 
Co61	 0.497407	 0.162527	 0.000000 
Co62	 0.523920	 0.234336	 0.500000 
Co63	 0.465055	 0.283268	 0.000000 
Co64	 0.491567	 0.355077	 0.500000 
Co65	 0.432703	 0.404009	 0.000000 
Co66	 0.459215	 0.475817	 0.500000 
Co67	 0.400350	 0.524749	 0.000000 
Co68	 0.426862	 0.596558	 0.500000 
Co69	 0.367998	 0.645490	 0.000000 
Co70	 0.394510	 0.717299	 0.500000 
Co71	 0.335646	 0.766231	 0.000000 
Co72	 0.362158	 0.838039	 0.500000 
Co73	 0.303293	 0.886971	 0.000000 
Co74	 0.329805	 0.958780	 0.500000 
Co75	 0.615136	 0.064663	 0.000000 
Co76	 0.641648	 0.136472	 0.500000 
Co77	 0.582784	 0.185404	 0.000000 
Co78	 0.609296	 0.257212	 0.500000 
Co79	 0.550432	 0.306144	 0.000000 
Co80	 0.576944	 0.377953	 0.500000 
Co81	 0.518079	 0.426885	 0.000000 
Co82	 0.544591	 0.498694	 0.500000 
Co83	 0.485727	 0.547626	 0.000000 
Co84	 0.512239	 0.619435	 0.500000 
Co85	 0.453374	 0.668367	 0.000000 
Co86	 0.479887	 0.740175	 0.500000 
Co87	 0.421022	 0.789107	 0.000000 
Co88	 0.447534	 0.860916	 0.500000 
Co89	 0.388670	 0.909848	 0.000000 
Co90	 0.415182	 0.981657	 0.500000 
Co91	 0.700513	 0.087540	 0.000000 
Co92	 0.727025	 0.159348	 0.500000 
Co93	 0.668161	 0.208280	 0.000000 
Co94	 0.694673	 0.280089	 0.500000 
Co95	 0.635808	 0.329021	 0.000000 
Co96	 0.662320	 0.400830	 0.500000 
Co97	 0.603456	 0.449762	 0.000000 
Co98	 0.629968	 0.521570	 0.500000 
Co99	 0.571103	 0.570502	 0.000000 
Co100	 0.597616	 0.642311	 0.500000 
Co101	 0.538751	 0.691243	 0.000000 
Co102	 0.565263	 0.763052	 0.500000 
Co103	 0.506399	 0.811984	 0.000000 
Co104	 0.532911	 0.883793	 0.500000 
Co105	 0.474046	 0.932725	 0.000000 
Co106	 0.785890	 0.110416	 0.000000 
Co107	 0.812402	 0.182225	 0.500000 
Co108	 0.753537	 0.231157	 0.000000 
Co109	 0.780049	 0.302966	 0.500000 
Co110	 0.721185	 0.351898	 0.000000 
Co111	 0.747697	 0.423706	 0.500000 
Co112	 0.688832	 0.472638	 0.000000 
Co113	 0.715345	 0.544447	 0.500000 
Co114	 0.656480	 0.593379	 0.000000 
Co115	 0.682992	 0.665188	 0.500000 
Co116	 0.624128	 0.714120	 0.000000 
Co117	 0.650640	 0.785928	 0.500000 
Co118	 0.591775	 0.834861	 0.000000 
Co119	 0.618287	 0.906669	 0.500000 
Co120	 0.559423	 0.955601	 0.000000 
Co121	 0.871266	 0.133293	 0.000000 
Co122	 0.897778	 0.205101	 0.500000 
Co123	 0.838914	 0.254033	 0.000000 
Co124	 0.865426	 0.325842	 0.500000 
Co125	 0.806561	 0.374774	 0.000000 
Co126	 0.833073	 0.446583	 0.500000 
Co127	 0.774209	 0.495515	 0.000000 
Co128	 0.800721	 0.567324	 0.500000 
Co129	 0.741857	 0.616256	 0.000000 
Co130	 0.768369	 0.688064	 0.500000 
Co131	 0.709504	 0.736996	 0.000000 
Co132	 0.736016	 0.808805	 0.500000 
Co133	 0.677152	 0.857737	 0.000000 
Co134	 0.703664	 0.929546	 0.500000 
Co135	 0.644799	 0.978478	 0.000000 
Co136	 0.956643	 0.156169	 0.000000 
Co137	 0.983155	 0.227978	 0.500000 
Co138	 0.924290	 0.276910	 0.000000 
Co139	 0.950802	 0.348719	 0.500000 
Co140	 0.891938	 0.397651	 0.000000 
Co141	 0.918450	 0.469459	 0.500000 
Co142	 0.859586	 0.518392	 0.000000 
Co143	 0.886098	 0.590200	 0.500000 
Co144	 0.827233	 0.639132	 0.000000 
Co145	 0.853745	 0.710941	 0.500000 
Co146	 0.794881	 0.759873	 0.000000 
Co147	 0.821393	 0.831682	 0.500000 
Co148	 0.762528	 0.880614	 0.000000 
Co149	 0.789041	 0.952422	 0.500000 
Co150	 0.977315	 0.420527	 0.000000 
Co151	 0.944962	 0.541268	 0.000000 
Co152	 0.971474	 0.613077	 0.500000 
Co153	 0.912610	 0.662009	 0.000000 
Co154	 0.939122	 0.733817	 0.500000 
Co155	 0.880257	 0.782750	 0.000000 
Co156	 0.906770	 0.854558	 0.500000 
Co157	 0.847905	 0.903490	 0.000000 
Co158	 0.874417	 0.975299	 0.500000 
#                 ---end-of-data-block---
