data_Pt structure along [001] nx 7 ny 7 nz 1
_cell_length_a               29.260000
_cell_length_b               29.260000
_cell_length_c               4.180000
_cell_angle_alpha          90.000000
_cell_angle_beta           90.000000
_cell_angle_gamma          90.000000
_symmetry_cell_setting          Triclinic
_symmetry_space_group_name_H-M 'P 1' 
loop_
_atom_site_label
_atom_site_fract_x
_atom_site_fract_y
_atom_site_fract_z
Co1	 0.955989	 0.044505	 0.000000 
Co2	 0.955989	 0.115933	 0.500000 
Co3	 0.884560	 0.115933	 0.000000 
Co4	 0.884560	 0.044505	 0.500000 
Co5	 0.813132	 0.044505	 0.000000 
Co6	 0.813132	 0.115933	 0.500000 
Co7	 0.741703	 0.115933	 0.000000 
Co8	 0.741703	 0.044505	 0.500000 
Co9	 0.670274	 0.044505	 0.000000 
Co10	 0.670274	 0.115933	 0.500000 
Co11	 0.598846	 0.115933	 0.000000 
Co12	 0.598846	 0.044505	 0.500000 
Co13	 0.527417	 0.044505	 0.000000 
Co14	 0.527417	 0.115933	 0.500000 
Co15	 0.455989	 0.115933	 0.000000 
Co16	 0.455989	 0.044505	 0.500000 
Co17	 0.384560	 0.044505	 0.000000 
Co18	 0.384560	 0.115933	 0.500000 
Co19	 0.313132	 0.115933	 0.000000 
Co20	 0.313132	 0.044505	 0.500000 
Co21	 0.241703	 0.044505	 0.000000 
Co22	 0.241703	 0.115933	 0.500000 
Co23	 0.170274	 0.115933	 0.000000 
Co24	 0.170274	 0.044505	 0.500000 
Co25	 0.098846	 0.044505	 0.000000 
Co26	 0.098846	 0.115933	 0.500000 
Co27	 0.027417	 0.115933	 0.000000 
Co28	 0.027417	 0.044505	 0.500000 
Co29	 0.955989	 0.187362	 0.000000 
Co30	 0.955989	 0.258790	 0.500000 
Co31	 0.884560	 0.258790	 0.000000 
Co32	 0.884560	 0.187362	 0.500000 
Co33	 0.813132	 0.187362	 0.000000 
Co34	 0.813132	 0.258790	 0.500000 
Co35	 0.741703	 0.258790	 0.000000 
Co36	 0.741703	 0.187362	 0.500000 
Co37	 0.670274	 0.187362	 0.000000 
Co38	 0.670274	 0.258790	 0.500000 
Co39	 0.598846	 0.258790	 0.000000 
Co40	 0.598846	 0.187362	 0.500000 
Co41	 0.527417	 0.187362	 0.000000 
Co42	 0.527417	 0.258790	 0.500000 
Co43	 0.455989	 0.258790	 0.000000 
Co44	 0.455989	 0.187362	 0.500000 
Co45	 0.384560	 0.187362	 0.000000 
Co46	 0.384560	 0.258790	 0.500000 
Co47	 0.313132	 0.258790	 0.000000 
Co48	 0.313132	 0.187362	 0.500000 
Co49	 0.241703	 0.187362	 0.000000 
Co50	 0.241703	 0.258790	 0.500000 
Co51	 0.170274	 0.258790	 0.000000 
Co52	 0.170274	 0.187362	 0.500000 
Co53	 0.098846	 0.187362	 0.000000 
Co54	 0.098846	 0.258790	 0.500000 
Co55	 0.027417	 0.258790	 0.000000 
Co56	 0.027417	 0.187362	 0.500000 
Co57	 0.955989	 0.330219	 0.000000 
Co58	 0.955989	 0.401647	 0.500000 
Co59	 0.884560	 0.401647	 0.000000 
Co60	 0.884560	 0.330219	 0.500000 
Co61	 0.813132	 0.330219	 0.000000 
Co62	 0.813132	 0.401647	 0.500000 
Co63	 0.741703	 0.401647	 0.000000 
Co64	 0.741703	 0.330219	 0.500000 
Co65	 0.670274	 0.330219	 0.000000 
Co66	 0.670274	 0.401647	 0.500000 
Co67	 0.598846	 0.401647	 0.000000 
Co68	 0.598846	 0.330219	 0.500000 
Co69	 0.527417	 0.330219	 0.000000 
Co70	 0.527417	 0.401647	 0.500000 
Co71	 0.455989	 0.401647	 0.000000 
Co72	 0.455989	 0.330219	 0.500000 
Co73	 0.384560	 0.330219	 0.000000 
Co74	 0.384560	 0.401647	 0.500000 
Co75	 0.313132	 0.401647	 0.000000 
Co76	 0.313132	 0.330219	 0.500000 
Co77	 0.241703	 0.330219	 0.000000 
Co78	 0.241703	 0.401647	 0.500000 
Co79	 0.170274	 0.401647	 0.000000 
Co80	 0.170274	 0.330219	 0.500000 
Co81	 0.098846	 0.330219	 0.000000 
Co82	 0.098846	 0.401647	 0.500000 
Co83	 0.027417	 0.401647	 0.000000 
Co84	 0.027417	 0.330219	 0.500000 
Co85	 0.955989	 0.473076	 0.000000 
Co86	 0.955989	 0.544505	 0.500000 
Co87	 0.884560	 0.544505	 0.000000 
Co88	 0.884560	 0.473076	 0.500000 
Co89	 0.813132	 0.473076	 0.000000 
Co90	 0.813132	 0.544505	 0.500000 
Co91	 0.741703	 0.544505	 0.000000 
Co92	 0.741703	 0.473076	 0.500000 
Co93	 0.670274	 0.473076	 0.000000 
Co94	 0.670274	 0.544505	 0.500000 
Co95	 0.598846	 0.544505	 0.000000 
Co96	 0.598846	 0.473076	 0.500000 
Co97	 0.527417	 0.473076	 0.000000 
Co98	 0.527417	 0.544505	 0.500000 
Co99	 0.455989	 0.544505	 0.000000 
Co100	 0.455989	 0.473076	 0.500000 
Co101	 0.384560	 0.473076	 0.000000 
Co102	 0.384560	 0.544505	 0.500000 
Co103	 0.313132	 0.544505	 0.000000 
Co104	 0.313132	 0.473076	 0.500000 
Co105	 0.241703	 0.473076	 0.000000 
Co106	 0.241703	 0.544505	 0.500000 
Co107	 0.170274	 0.544505	 0.000000 
Co108	 0.170274	 0.473076	 0.500000 
Co109	 0.098846	 0.473076	 0.000000 
Co110	 0.098846	 0.544505	 0.500000 
Co111	 0.027417	 0.544505	 0.000000 
Co112	 0.027417	 0.473076	 0.500000 
Co113	 0.955989	 0.615933	 0.000000 
Co114	 0.955989	 0.687362	 0.500000 
Co115	 0.884560	 0.687362	 0.000000 
Co116	 0.884560	 0.615933	 0.500000 
Co117	 0.813132	 0.615933	 0.000000 
Co118	 0.813132	 0.687362	 0.500000 
Co119	 0.741703	 0.687362	 0.000000 
Co120	 0.741703	 0.615933	 0.500000 
Co121	 0.670274	 0.615933	 0.000000 
Co122	 0.670274	 0.687362	 0.500000 
Co123	 0.598846	 0.687362	 0.000000 
Co124	 0.598846	 0.615933	 0.500000 
Co125	 0.527417	 0.615933	 0.000000 
Co126	 0.527417	 0.687362	 0.500000 
Co127	 0.455989	 0.687362	 0.000000 
Co128	 0.455989	 0.615933	 0.500000 
Co129	 0.384560	 0.615933	 0.000000 
Co130	 0.384560	 0.687362	 0.500000 
Co131	 0.313132	 0.687362	 0.000000 
Co132	 0.313132	 0.615933	 0.500000 
Co133	 0.241703	 0.615933	 0.000000 
Co134	 0.241703	 0.687362	 0.500000 
Co135	 0.170274	 0.687362	 0.000000 
Co136	 0.170274	 0.615933	 0.500000 
Co137	 0.098846	 0.615933	 0.000000 
Co138	 0.098846	 0.687362	 0.500000 
Co139	 0.027417	 0.687362	 0.000000 
Co140	 0.027417	 0.615933	 0.500000 
Co141	 0.955989	 0.758790	 0.000000 
Co142	 0.955989	 0.830219	 0.500000 
Co143	 0.884560	 0.830219	 0.000000 
Co144	 0.884560	 0.758790	 0.500000 
Co145	 0.813132	 0.758790	 0.000000 
Co146	 0.813132	 0.830219	 0.500000 
Co147	 0.741703	 0.830219	 0.000000 
Co148	 0.741703	 0.758790	 0.500000 
Co149	 0.670274	 0.758790	 0.000000 
Co150	 0.670274	 0.830219	 0.500000 
Co151	 0.598846	 0.830219	 0.000000 
Co152	 0.598846	 0.758790	 0.500000 
Co153	 0.527417	 0.758790	 0.000000 
Co154	 0.527417	 0.830219	 0.500000 
Co155	 0.455989	 0.830219	 0.000000 
Co156	 0.455989	 0.758790	 0.500000 
Co157	 0.384560	 0.758790	 0.000000 
Co158	 0.384560	 0.830219	 0.500000 
Co159	 0.313132	 0.830219	 0.000000 
Co160	 0.313132	 0.758790	 0.500000 
Co161	 0.241703	 0.758790	 0.000000 
Co162	 0.241703	 0.830219	 0.500000 
Co163	 0.170274	 0.830219	 0.000000 
Co164	 0.170274	 0.758790	 0.500000 
Co165	 0.098846	 0.758790	 0.000000 
Co166	 0.098846	 0.830219	 0.500000 
Co167	 0.027417	 0.830219	 0.000000 
Co168	 0.027417	 0.758790	 0.500000 
Co169	 0.955989	 0.901647	 0.000000 
Co170	 0.955989	 0.973076	 0.500000 
Co171	 0.884560	 0.973076	 0.000000 
Co172	 0.884560	 0.901647	 0.500000 
Co173	 0.813132	 0.901647	 0.000000 
Co174	 0.813132	 0.973076	 0.500000 
Co175	 0.741703	 0.973076	 0.000000 
Co176	 0.741703	 0.901647	 0.500000 
Co177	 0.670274	 0.901647	 0.000000 
Co178	 0.670274	 0.973076	 0.500000 
Co179	 0.598846	 0.973076	 0.000000 
Co180	 0.598846	 0.901647	 0.500000 
Co181	 0.527417	 0.901647	 0.000000 
Co182	 0.527417	 0.973076	 0.500000 
Co183	 0.455989	 0.973076	 0.000000 
Co184	 0.455989	 0.901647	 0.500000 
Co185	 0.384560	 0.901647	 0.000000 
Co186	 0.384560	 0.973076	 0.500000 
Co187	 0.313132	 0.973076	 0.000000 
Co188	 0.313132	 0.901647	 0.500000 
Co189	 0.241703	 0.901647	 0.000000 
Co190	 0.241703	 0.973076	 0.500000 
Co191	 0.170274	 0.973076	 0.000000 
Co192	 0.170274	 0.901647	 0.500000 
Co193	 0.098846	 0.901647	 0.000000 
Co194	 0.098846	 0.973076	 0.500000 
Co195	 0.027417	 0.973076	 0.000000 
Co196	 0.027417	 0.901647	 0.500000 
#                 ---end-of-data-block---
