data_Pt structure along [001] nx 7 ny 7 nz 1
_cell_length_a               29.260000
_cell_length_b               29.260000
_cell_length_c               4.180000
_cell_angle_alpha          90.000000
_cell_angle_beta           90.000000
_cell_angle_gamma          90.000000
_symmetry_cell_setting          Triclinic
_symmetry_space_group_name_H-M 'P 1' 
loop_
_atom_site_label
_atom_site_fract_x
_atom_site_fract_y
_atom_site_fract_z
Co1	 0.830222	 0.068580	 0.500000 
Co2	 0.761227	 0.087067	 0.000000 
Co3	 0.742740	 0.018072	 0.500000 
Co4	 0.673745	 0.036559	 0.000000 
Co5	 0.692232	 0.105554	 0.500000 
Co6	 0.623238	 0.124041	 0.000000 
Co7	 0.604751	 0.055046	 0.500000 
Co8	 0.535756	 0.073534	 0.000000 
Co9	 0.554243	 0.142528	 0.500000 
Co10	 0.485248	 0.161015	 0.000000 
Co11	 0.466761	 0.092021	 0.500000 
Co12	 0.397767	 0.110508	 0.000000 
Co13	 0.416254	 0.179502	 0.500000 
Co14	 0.347259	 0.197989	 0.000000 
Co15	 0.328772	 0.128995	 0.500000 
Co16	 0.259777	 0.147482	 0.000000 
Co17	 0.278264	 0.216477	 0.500000 
Co18	 0.209269	 0.234964	 0.000000 
Co19	 0.190782	 0.165969	 0.500000 
Co20	 0.121788	 0.184456	 0.000000 
Co21	 0.140275	 0.253451	 0.500000 
Co22	 0.071280	 0.271938	 0.000000 
Co23	 0.052793	 0.202943	 0.500000 
Co24	 0.002285	 0.290425	 0.500000 
Co25	 0.848709	 0.137575	 0.000000 
Co26	 0.867196	 0.206569	 0.500000 
Co27	 0.798201	 0.225056	 0.000000 
Co28	 0.779714	 0.156062	 0.500000 
Co29	 0.710719	 0.174549	 0.000000 
Co30	 0.729207	 0.243543	 0.500000 
Co31	 0.660212	 0.262031	 0.000000 
Co32	 0.641725	 0.193036	 0.500000 
Co33	 0.572730	 0.211523	 0.000000 
Co34	 0.591217	 0.280518	 0.500000 
Co35	 0.522222	 0.299005	 0.000000 
Co36	 0.503735	 0.230010	 0.500000 
Co37	 0.434741	 0.248497	 0.000000 
Co38	 0.453228	 0.317492	 0.500000 
Co39	 0.384233	 0.335979	 0.000000 
Co40	 0.365746	 0.266984	 0.500000 
Co41	 0.296751	 0.285471	 0.000000 
Co42	 0.315238	 0.354466	 0.500000 
Co43	 0.246244	 0.372953	 0.000000 
Co44	 0.227757	 0.303958	 0.500000 
Co45	 0.158762	 0.322445	 0.000000 
Co46	 0.177249	 0.391440	 0.500000 
Co47	 0.108254	 0.409927	 0.000000 
Co48	 0.089767	 0.340932	 0.500000 
Co49	 0.020772	 0.359420	 0.000000 
Co50	 0.039260	 0.428414	 0.500000 
Co51	 0.885683	 0.275564	 0.000000 
Co52	 0.904170	 0.344559	 0.500000 
Co53	 0.835175	 0.363046	 0.000000 
Co54	 0.816688	 0.294051	 0.500000 
Co55	 0.747694	 0.312538	 0.000000 
Co56	 0.766181	 0.381533	 0.500000 
Co57	 0.697186	 0.400020	 0.000000 
Co58	 0.678699	 0.331025	 0.500000 
Co59	 0.609704	 0.349512	 0.000000 
Co60	 0.628191	 0.418507	 0.500000 
Co61	 0.559197	 0.436994	 0.000000 
Co62	 0.540710	 0.367999	 0.500000 
Co63	 0.471715	 0.386486	 0.000000 
Co64	 0.490202	 0.455481	 0.500000 
Co65	 0.421207	 0.473968	 0.000000 
Co66	 0.402720	 0.404974	 0.500000 
Co67	 0.333725	 0.423461	 0.000000 
Co68	 0.352212	 0.492455	 0.500000 
Co69	 0.283218	 0.510942	 0.000000 
Co70	 0.264731	 0.441948	 0.500000 
Co71	 0.195736	 0.460435	 0.000000 
Co72	 0.214223	 0.529429	 0.500000 
Co73	 0.145228	 0.547917	 0.000000 
Co74	 0.126741	 0.478922	 0.500000 
Co75	 0.057747	 0.497409	 0.000000 
Co76	 0.076234	 0.566404	 0.500000 
Co77	 0.007239	 0.584891	 0.000000 
Co78	 0.922657	 0.413553	 0.000000 
Co79	 0.941144	 0.482548	 0.500000 
Co80	 0.872150	 0.501035	 0.000000 
Co81	 0.853662	 0.432040	 0.500000 
Co82	 0.784668	 0.450528	 0.000000 
Co83	 0.803155	 0.519522	 0.500000 
Co84	 0.734160	 0.538009	 0.000000 
Co85	 0.715673	 0.469015	 0.500000 
Co86	 0.646678	 0.487502	 0.000000 
Co87	 0.665165	 0.556496	 0.500000 
Co88	 0.596171	 0.574983	 0.000000 
Co89	 0.577684	 0.505989	 0.500000 
Co90	 0.508689	 0.524476	 0.000000 
Co91	 0.527176	 0.593471	 0.500000 
Co92	 0.458181	 0.611958	 0.000000 
Co93	 0.439694	 0.542963	 0.500000 
Co94	 0.370700	 0.561450	 0.000000 
Co95	 0.389187	 0.630445	 0.500000 
Co96	 0.320192	 0.648932	 0.000000 
Co97	 0.301705	 0.579937	 0.500000 
Co98	 0.232710	 0.598424	 0.000000 
Co99	 0.251197	 0.667419	 0.500000 
Co100	 0.182203	 0.685906	 0.000000 
Co101	 0.163715	 0.616911	 0.500000 
Co102	 0.094721	 0.635398	 0.000000 
Co103	 0.113208	 0.704393	 0.500000 
Co104	 0.044213	 0.722880	 0.000000 
Co105	 0.025726	 0.653885	 0.500000 
Co106	 0.959631	 0.551543	 0.000000 
Co107	 0.978118	 0.620538	 0.500000 
Co108	 0.909124	 0.639025	 0.000000 
Co109	 0.890637	 0.570030	 0.500000 
Co110	 0.821642	 0.588517	 0.000000 
Co111	 0.840129	 0.657512	 0.500000 
Co112	 0.771134	 0.675999	 0.000000 
Co113	 0.752647	 0.607004	 0.500000 
Co114	 0.683653	 0.625491	 0.000000 
Co115	 0.702140	 0.694486	 0.500000 
Co116	 0.633145	 0.712973	 0.000000 
Co117	 0.614658	 0.643978	 0.500000 
Co118	 0.545663	 0.662465	 0.000000 
Co119	 0.564150	 0.731460	 0.500000 
Co120	 0.495155	 0.749947	 0.000000 
Co121	 0.476668	 0.680952	 0.500000 
Co122	 0.407674	 0.699439	 0.000000 
Co123	 0.426161	 0.768434	 0.500000 
Co124	 0.357166	 0.786921	 0.000000 
Co125	 0.338679	 0.717926	 0.500000 
Co126	 0.269684	 0.736414	 0.000000 
Co127	 0.288171	 0.805408	 0.500000 
Co128	 0.219177	 0.823895	 0.000000 
Co129	 0.200690	 0.754901	 0.500000 
Co130	 0.131695	 0.773388	 0.000000 
Co131	 0.150182	 0.842382	 0.500000 
Co132	 0.081187	 0.860869	 0.000000 
Co133	 0.062700	 0.791875	 0.500000 
Co134	 0.996605	 0.689532	 0.000000 
Co135	 0.946098	 0.777014	 0.000000 
Co136	 0.927611	 0.708019	 0.500000 
Co137	 0.858616	 0.726506	 0.000000 
Co138	 0.877103	 0.795501	 0.500000 
Co139	 0.808108	 0.813988	 0.000000 
Co140	 0.789621	 0.744993	 0.500000 
Co141	 0.720627	 0.763481	 0.000000 
Co142	 0.739114	 0.832475	 0.500000 
Co143	 0.670119	 0.850962	 0.000000 
Co144	 0.651632	 0.781968	 0.500000 
Co145	 0.582637	 0.800455	 0.000000 
Co146	 0.601124	 0.869449	 0.500000 
Co147	 0.532130	 0.887936	 0.000000 
Co148	 0.513643	 0.818942	 0.500000 
Co149	 0.444648	 0.837429	 0.000000 
Co150	 0.463135	 0.906424	 0.500000 
Co151	 0.394140	 0.924911	 0.000000 
Co152	 0.375653	 0.855916	 0.500000 
Co153	 0.306658	 0.874403	 0.000000 
Co154	 0.325146	 0.943398	 0.500000 
Co155	 0.256151	 0.961885	 0.000000 
Co156	 0.237664	 0.892890	 0.500000 
Co157	 0.168669	 0.911377	 0.000000 
Co158	 0.187156	 0.980372	 0.500000 
Co159	 0.118161	 0.998859	 0.000000 
Co160	 0.099674	 0.929864	 0.500000 
Co161	 0.964585	 0.846009	 0.500000 
Co162	 0.895590	 0.864496	 0.000000 
Co163	 0.826596	 0.882983	 0.500000 
Co164	 0.757601	 0.901470	 0.000000 
Co165	 0.517269	 0.004539	 0.500000 
Co166	 0.448274	 0.023026	 0.000000 
Co167	 0.688606	 0.919957	 0.500000 
Co168	 0.619611	 0.938444	 0.000000 
Co169	 0.379279	 0.041513	 0.500000 
Co170	 0.310285	 0.060000	 0.000000 
Co171	 0.550617	 0.956931	 0.500000 
Co172	 0.481622	 0.975418	 0.000000 
Co173	 0.241290	 0.078487	 0.500000 
Co174	 0.172295	 0.096974	 0.000000 
Co175	 0.412627	 0.993905	 0.500000 
Co176	 0.103301	 0.115461	 0.500000 
Co177	 0.034306	 0.133948	 0.000000 
#                 ---end-of-data-block---
