data_NiO [110] nx 6 ny 4 nz 1
_cell_length_a               30.735000
_cell_length_b               30.735000
_cell_length_c               2.957500
_cell_angle_alpha          90.000000
_cell_angle_beta           90.000000
_cell_angle_gamma          90.000000
_symmetry_cell_setting          Triclinic
_symmetry_space_group_name_H-M 'P 1' 
loop_
_atom_site_label
_atom_site_fract_x
_atom_site_fract_y
_atom_site_fract_z
Ni1	 0.490218	 0.019835	 1.000000 
Ni2	 0.402821	 0.060099	 0.000000 
Ni3	 0.459763	 0.183696	 0.000000 
Ni4	 0.387594	 0.142030	 0.500000 
Ni5	 0.474990	 0.101765	 0.500000 
Ni6	 0.372372	 0.223950	 1.000000 
Ni7	 0.284975	 0.264214	 0.000000 
Ni8	 0.341916	 0.387812	 0.000000 
Ni9	 0.269748	 0.346145	 0.500000 
Ni10	 0.300204	 0.182284	 0.500000 
Ni11	 0.357144	 0.305881	 0.500000 
Ni12	 0.254526	 0.428066	 1.000000 
Ni13	 0.167129	 0.468329	 0.000000 
Ni14	 0.224070	 0.591927	 0.000000 
Ni15	 0.151902	 0.550260	 0.500000 
Ni16	 0.182358	 0.386399	 0.500000 
Ni17	 0.239298	 0.509996	 0.500000 
Ni18	 0.136680	 0.632181	 1.000000 
Ni19	 0.049283	 0.672445	 0.000000 
Ni20	 0.106224	 0.796043	 0.000000 
Ni21	 0.034055	 0.754376	 0.500000 
Ni22	 0.064511	 0.590515	 0.500000 
Ni23	 0.121451	 0.714112	 0.500000 
Ni24	 0.634556	 0.103168	 1.000000 
Ni25	 0.547159	 0.143432	 0.000000 
Ni26	 0.604100	 0.267030	 0.000000 
Ni27	 0.531931	 0.225363	 0.500000 
Ni28	 0.562387	 0.061502	 0.500000 
Ni29	 0.619327	 0.185099	 0.500000 
Ni30	 0.516710	 0.307284	 1.000000 
Ni31	 0.429312	 0.347547	 0.000000 
Ni32	 0.486254	 0.471145	 0.000000 
Ni33	 0.414085	 0.429478	 0.500000 
Ni34	 0.444541	 0.265617	 0.500000 
Ni35	 0.501481	 0.389214	 0.500000 
Ni36	 0.398864	 0.511399	 1.000000 
Ni37	 0.311466	 0.551663	 0.000000 
Ni38	 0.368408	 0.675260	 0.000000 
Ni39	 0.296239	 0.633594	 0.500000 
Ni40	 0.326695	 0.469733	 0.500000 
Ni41	 0.383635	 0.593329	 0.500000 
Ni42	 0.281018	 0.715515	 1.000000 
Ni43	 0.193620	 0.755778	 0.000000 
Ni44	 0.250562	 0.879376	 0.000000 
Ni45	 0.178393	 0.837709	 0.500000 
Ni46	 0.208849	 0.673848	 0.500000 
Ni47	 0.265789	 0.797445	 0.500000 
Ni48	 0.778894	 0.186502	 1.000000 
Ni49	 0.691496	 0.226765	 0.000000 
Ni50	 0.748438	 0.350363	 0.000000 
Ni51	 0.676269	 0.308696	 0.500000 
Ni52	 0.706725	 0.144835	 0.500000 
Ni53	 0.763665	 0.268432	 0.500000 
Ni54	 0.661048	 0.390617	 1.000000 
Ni55	 0.573650	 0.430881	 0.000000 
Ni56	 0.630592	 0.554478	 0.000000 
Ni57	 0.558423	 0.512812	 0.500000 
Ni58	 0.588879	 0.348950	 0.500000 
Ni59	 0.645819	 0.472547	 0.500000 
Ni60	 0.543201	 0.594733	 1.000000 
Ni61	 0.455804	 0.634996	 0.000000 
Ni62	 0.512745	 0.758594	 0.000000 
Ni63	 0.440577	 0.716927	 0.500000 
Ni64	 0.471033	 0.553066	 0.500000 
Ni65	 0.527973	 0.676663	 0.500000 
Ni66	 0.425355	 0.798848	 1.000000 
Ni67	 0.337958	 0.839112	 0.000000 
Ni68	 0.394899	 0.962709	 0.000000 
Ni69	 0.322731	 0.921043	 0.500000 
Ni70	 0.353187	 0.757181	 0.500000 
Ni71	 0.410127	 0.880778	 0.500000 
Ni72	 0.923231	 0.269835	 1.000000 
Ni73	 0.835834	 0.310099	 0.000000 
Ni74	 0.892775	 0.433696	 0.000000 
Ni75	 0.820606	 0.392030	 0.500000 
Ni76	 0.851062	 0.228168	 0.500000 
Ni77	 0.908002	 0.351765	 0.500000 
Ni78	 0.805385	 0.473950	 1.000000 
Ni79	 0.717988	 0.514214	 0.000000 
Ni80	 0.774929	 0.637812	 0.000000 
Ni81	 0.702760	 0.596145	 0.500000 
Ni82	 0.733216	 0.432284	 0.500000 
Ni83	 0.790156	 0.555881	 0.500000 
Ni84	 0.687539	 0.678066	 1.000000 
Ni85	 0.600142	 0.718329	 0.000000 
Ni86	 0.657083	 0.841927	 0.000000 
Ni87	 0.584914	 0.800260	 0.500000 
Ni88	 0.615370	 0.636399	 0.500000 
Ni89	 0.672310	 0.759996	 0.500000 
Ni90	 0.569693	 0.882181	 1.000000 
Ni91	 0.482295	 0.922445	 0.000000 
Ni92	 0.497524	 0.840515	 0.500000 
Ni93	 0.554464	 0.964112	 0.500000 
Ni94	 0.980171	 0.393432	 0.000000 
Ni95	 0.964944	 0.475363	 0.500000 
Ni96	 0.995400	 0.311502	 0.500000 
Ni97	 0.949723	 0.557284	 1.000000 
Ni98	 0.862325	 0.597547	 0.000000 
Ni99	 0.919267	 0.721145	 0.000000 
Ni100	 0.847098	 0.679478	 0.500000 
Ni101	 0.877554	 0.515617	 0.500000 
Ni102	 0.934494	 0.639214	 0.500000 
Ni103	 0.831877	 0.761399	 1.000000 
Ni104	 0.744479	 0.801663	 0.000000 
Ni105	 0.801421	 0.925260	 0.000000 
Ni106	 0.729252	 0.883594	 0.500000 
Ni107	 0.759708	 0.719733	 0.500000 
Ni108	 0.816648	 0.843329	 0.500000 
Ni109	 0.714030	 0.965515	 1.000000 
Ni110	 0.641862	 0.923848	 0.500000 
Ni111	 0.315425	 0.100363	 0.000000 
Ni112	 0.243256	 0.058696	 0.500000 
Ni113	 0.330652	 0.018432	 0.500000 
Ni114	 0.228035	 0.140617	 1.000000 
Ni115	 0.140637	 0.180881	 0.000000 
Ni116	 0.197579	 0.304478	 0.000000 
Ni117	 0.125410	 0.262812	 0.500000 
Ni118	 0.155866	 0.098950	 0.500000 
Ni119	 0.212806	 0.222547	 0.500000 
Ni120	 0.110189	 0.344733	 1.000000 
Ni121	 0.022791	 0.384996	 0.000000 
Ni122	 0.079733	 0.508594	 0.000000 
Ni123	 0.007564	 0.466927	 0.500000 
Ni124	 0.038020	 0.303066	 0.500000 
Ni125	 0.094960	 0.426663	 0.500000 
#                 ---end-of-data-block---
