data_TiO2_rutile [001] nx 7 ny 7 nz 1
_cell_length_a               32.158000
_cell_length_b               32.158000
_cell_length_c               2.959000
_cell_angle_alpha          90.000000
_cell_angle_beta           90.000000
_cell_angle_gamma          90.000000
_symmetry_cell_setting          Triclinic
_symmetry_space_group_name_H-M 'P 1' 
loop_
_atom_site_label
_atom_site_fract_x
_atom_site_fract_y
_atom_site_fract_z
Ti1	 0.777951	 0.042693	 0.000000 
Ti2	 0.727444	 0.130175	 0.500000 
Ti3	 0.639962	 0.079667	 0.000000 
Ti4	 0.589454	 0.167149	 0.500000 
Ti5	 0.501972	 0.116641	 0.000000 
Ti6	 0.451465	 0.204123	 0.500000 
Ti7	 0.363983	 0.153615	 0.000000 
Ti8	 0.313475	 0.241097	 0.500000 
Ti9	 0.225994	 0.190589	 0.000000 
Ti10	 0.175486	 0.278071	 0.500000 
Ti11	 0.088004	 0.227564	 0.000000 
Ti12	 0.037497	 0.315045	 0.500000 
Ti13	 0.865433	 0.093201	 0.500000 
Ti14	 0.814925	 0.180682	 0.000000 
Ti15	 0.764418	 0.268164	 0.500000 
Ti16	 0.676936	 0.217656	 0.000000 
Ti17	 0.626428	 0.305138	 0.500000 
Ti18	 0.538946	 0.254631	 0.000000 
Ti19	 0.488439	 0.342112	 0.500000 
Ti20	 0.400957	 0.291605	 0.000000 
Ti21	 0.350449	 0.379087	 0.500000 
Ti22	 0.262968	 0.328579	 0.000000 
Ti23	 0.212460	 0.416061	 0.500000 
Ti24	 0.124978	 0.365553	 0.000000 
Ti25	 0.074471	 0.453035	 0.500000 
Ti26	 0.902407	 0.231190	 0.500000 
Ti27	 0.851899	 0.318672	 0.000000 
Ti28	 0.801392	 0.406153	 0.500000 
Ti29	 0.713910	 0.355646	 0.000000 
Ti30	 0.663402	 0.443128	 0.500000 
Ti31	 0.575921	 0.392620	 0.000000 
Ti32	 0.525413	 0.480102	 0.500000 
Ti33	 0.437931	 0.429594	 0.000000 
Ti34	 0.387424	 0.517076	 0.500000 
Ti35	 0.299942	 0.466568	 0.000000 
Ti36	 0.249434	 0.554050	 0.500000 
Ti37	 0.161952	 0.503542	 0.000000 
Ti38	 0.111445	 0.591024	 0.500000 
Ti39	 0.023963	 0.540517	 0.000000 
Ti40	 0.939381	 0.369179	 0.500000 
Ti41	 0.888874	 0.456661	 0.000000 
Ti42	 0.838366	 0.544143	 0.500000 
Ti43	 0.750884	 0.493635	 0.000000 
Ti44	 0.700377	 0.581117	 0.500000 
Ti45	 0.612895	 0.530609	 0.000000 
Ti46	 0.562387	 0.618091	 0.500000 
Ti47	 0.474905	 0.567584	 0.000000 
Ti48	 0.424398	 0.655065	 0.500000 
Ti49	 0.336916	 0.604558	 0.000000 
Ti50	 0.286408	 0.692039	 0.500000 
Ti51	 0.198927	 0.641532	 0.000000 
Ti52	 0.148419	 0.729014	 0.500000 
Ti53	 0.060937	 0.678506	 0.000000 
Ti54	 0.976355	 0.507169	 0.500000 
Ti55	 0.925848	 0.594651	 0.000000 
Ti56	 0.875340	 0.682132	 0.500000 
Ti57	 0.787858	 0.631625	 0.000000 
Ti58	 0.737351	 0.719106	 0.500000 
Ti59	 0.649869	 0.668599	 0.000000 
Ti60	 0.599361	 0.756081	 0.500000 
Ti61	 0.511880	 0.705573	 0.000000 
Ti62	 0.461372	 0.793055	 0.500000 
Ti63	 0.373890	 0.742547	 0.000000 
Ti64	 0.323383	 0.830029	 0.500000 
Ti65	 0.235901	 0.779521	 0.000000 
Ti66	 0.185393	 0.867003	 0.500000 
Ti67	 0.097911	 0.816495	 0.000000 
Ti68	 0.962822	 0.732640	 0.000000 
Ti69	 0.912314	 0.820122	 0.500000 
Ti70	 0.824832	 0.769614	 0.000000 
Ti71	 0.774325	 0.857096	 0.500000 
Ti72	 0.686843	 0.806588	 0.000000 
Ti73	 0.636335	 0.894070	 0.500000 
Ti74	 0.548854	 0.843562	 0.000000 
Ti75	 0.498346	 0.931044	 0.500000 
Ti76	 0.410864	 0.880537	 0.000000 
Ti77	 0.360357	 0.968018	 0.500000 
Ti78	 0.272875	 0.917511	 0.000000 
Ti79	 0.134885	 0.954485	 0.000000 
Ti80	 0.999796	 0.870629	 0.000000 
Ti81	 0.861807	 0.907603	 0.000000 
Ti82	 0.552480	 0.029159	 0.500000 
Ti83	 0.723817	 0.944578	 0.000000 
Ti84	 0.414491	 0.066134	 0.500000 
Ti85	 0.585828	 0.981552	 0.000000 
Ti86	 0.276501	 0.103108	 0.500000 
Ti87	 0.138512	 0.140082	 0.500000 
Ti88	 0.000522	 0.177056	 0.500000 
#                 ---end-of-data-block---
