data_TiO2_rutile [100] nx 10 ny 7 nz 1
_cell_length_a               32.158000
_cell_length_b               32.158000
_cell_length_c               4.594000
_cell_angle_alpha          90.000000
_cell_angle_beta           90.000000
_cell_angle_gamma          90.000000
_symmetry_cell_setting          Triclinic
_symmetry_space_group_name_H-M 'P 1' 
loop_
_atom_site_label
_atom_site_fract_x
_atom_site_fract_y
_atom_site_fract_z
Ti1	 0.174915	 0.153770	 0.000000 
Ti2	 0.237841	 0.096683	 0.500000 
Ti3	 0.137940	 0.291760	 0.000000 
Ti4	 0.200867	 0.234673	 0.500000 
Ti5	 0.100966	 0.429749	 0.000000 
Ti6	 0.163893	 0.372662	 0.500000 
Ti7	 0.063992	 0.567739	 0.000000 
Ti8	 0.126919	 0.510651	 0.500000 
Ti9	 0.027018	 0.705728	 0.000000 
Ti10	 0.089945	 0.648641	 0.500000 
Ti11	 0.052971	 0.786630	 0.500000 
Ti12	 0.211889	 0.015781	 0.000000 
Ti13	 0.263794	 0.177585	 0.000000 
Ti14	 0.326720	 0.120498	 0.500000 
Ti15	 0.226820	 0.315575	 0.000000 
Ti16	 0.289746	 0.258488	 0.500000 
Ti17	 0.189845	 0.453564	 0.000000 
Ti18	 0.252772	 0.396477	 0.500000 
Ti19	 0.152871	 0.591554	 0.000000 
Ti20	 0.215798	 0.534466	 0.500000 
Ti21	 0.115897	 0.729543	 0.000000 
Ti22	 0.178824	 0.672456	 0.500000 
Ti23	 0.078923	 0.867532	 0.000000 
Ti24	 0.141850	 0.810445	 0.500000 
Ti25	 0.300768	 0.039596	 0.000000 
Ti26	 0.352673	 0.201401	 0.000000 
Ti27	 0.415599	 0.144313	 0.500000 
Ti28	 0.315699	 0.339390	 0.000000 
Ti29	 0.378625	 0.282303	 0.500000 
Ti30	 0.278725	 0.477379	 0.000000 
Ti31	 0.341651	 0.420292	 0.500000 
Ti32	 0.241750	 0.615369	 0.000000 
Ti33	 0.304677	 0.558282	 0.500000 
Ti34	 0.204776	 0.753358	 0.000000 
Ti35	 0.267703	 0.696271	 0.500000 
Ti36	 0.167802	 0.891348	 0.000000 
Ti37	 0.230729	 0.834260	 0.500000 
Ti38	 0.389647	 0.063411	 0.000000 
Ti39	 0.452574	 0.006324	 0.500000 
Ti40	 0.441552	 0.225216	 0.000000 
Ti41	 0.504479	 0.168128	 0.500000 
Ti42	 0.404578	 0.363205	 0.000000 
Ti43	 0.467504	 0.306118	 0.500000 
Ti44	 0.367604	 0.501194	 0.000000 
Ti45	 0.430530	 0.444107	 0.500000 
Ti46	 0.330630	 0.639184	 0.000000 
Ti47	 0.393556	 0.582097	 0.500000 
Ti48	 0.293655	 0.777173	 0.000000 
Ti49	 0.356582	 0.720086	 0.500000 
Ti50	 0.256681	 0.915163	 0.000000 
Ti51	 0.319608	 0.858075	 0.500000 
Ti52	 0.478526	 0.087226	 0.000000 
Ti53	 0.541453	 0.030139	 0.500000 
Ti54	 0.530431	 0.249031	 0.000000 
Ti55	 0.593358	 0.191944	 0.500000 
Ti56	 0.493457	 0.387020	 0.000000 
Ti57	 0.556384	 0.329933	 0.500000 
Ti58	 0.456483	 0.525010	 0.000000 
Ti59	 0.519409	 0.467922	 0.500000 
Ti60	 0.419509	 0.662999	 0.000000 
Ti61	 0.482435	 0.605912	 0.500000 
Ti62	 0.382534	 0.800988	 0.000000 
Ti63	 0.445461	 0.743901	 0.500000 
Ti64	 0.345560	 0.938978	 0.000000 
Ti65	 0.408487	 0.881891	 0.500000 
Ti66	 0.567405	 0.111041	 0.000000 
Ti67	 0.630332	 0.053954	 0.500000 
Ti68	 0.619310	 0.272846	 0.000000 
Ti69	 0.682237	 0.215759	 0.500000 
Ti70	 0.582336	 0.410835	 0.000000 
Ti71	 0.645263	 0.353748	 0.500000 
Ti72	 0.545362	 0.548825	 0.000000 
Ti73	 0.608289	 0.491737	 0.500000 
Ti74	 0.508388	 0.686814	 0.000000 
Ti75	 0.571314	 0.629727	 0.500000 
Ti76	 0.471414	 0.824803	 0.000000 
Ti77	 0.534340	 0.767716	 0.500000 
Ti78	 0.434439	 0.962793	 0.000000 
Ti79	 0.497366	 0.905706	 0.500000 
Ti80	 0.656284	 0.134856	 0.000000 
Ti81	 0.719211	 0.077769	 0.500000 
Ti82	 0.708189	 0.296661	 0.000000 
Ti83	 0.771116	 0.239574	 0.500000 
Ti84	 0.671215	 0.434650	 0.000000 
Ti85	 0.734142	 0.377563	 0.500000 
Ti86	 0.634241	 0.572640	 0.000000 
Ti87	 0.697168	 0.515553	 0.500000 
Ti88	 0.597267	 0.710629	 0.000000 
Ti89	 0.660193	 0.653542	 0.500000 
Ti90	 0.560293	 0.848618	 0.000000 
Ti91	 0.623219	 0.791531	 0.500000 
Ti92	 0.523319	 0.986608	 0.000000 
Ti93	 0.586245	 0.929521	 0.500000 
Ti94	 0.745163	 0.158671	 0.000000 
Ti95	 0.808090	 0.101584	 0.500000 
Ti96	 0.797068	 0.320476	 0.000000 
Ti97	 0.859995	 0.263389	 0.500000 
Ti98	 0.760094	 0.458465	 0.000000 
Ti99	 0.823021	 0.401378	 0.500000 
Ti100	 0.723120	 0.596455	 0.000000 
Ti101	 0.786047	 0.539368	 0.500000 
Ti102	 0.686146	 0.734444	 0.000000 
Ti103	 0.749073	 0.677357	 0.500000 
Ti104	 0.649172	 0.872434	 0.000000 
Ti105	 0.712098	 0.815346	 0.500000 
Ti106	 0.675124	 0.953336	 0.500000 
Ti107	 0.834043	 0.182487	 0.000000 
Ti108	 0.896969	 0.125399	 0.500000 
Ti109	 0.885948	 0.344291	 0.000000 
Ti110	 0.948874	 0.287204	 0.500000 
Ti111	 0.848973	 0.482280	 0.000000 
Ti112	 0.911900	 0.425193	 0.500000 
Ti113	 0.811999	 0.620270	 0.000000 
Ti114	 0.874926	 0.563183	 0.500000 
Ti115	 0.775025	 0.758259	 0.000000 
Ti116	 0.837952	 0.701172	 0.500000 
Ti117	 0.738051	 0.896249	 0.000000 
Ti118	 0.800978	 0.839162	 0.500000 
Ti119	 0.764003	 0.977151	 0.500000 
Ti120	 0.922922	 0.206302	 0.000000 
Ti121	 0.985848	 0.149214	 0.500000 
Ti122	 0.974827	 0.368106	 0.000000 
Ti123	 0.148962	 0.072868	 0.500000 
Ti124	 0.937852	 0.506096	 0.000000 
Ti125	 0.111988	 0.210858	 0.500000 
Ti126	 0.900878	 0.644085	 0.000000 
Ti127	 0.075014	 0.348847	 0.500000 
Ti128	 0.863904	 0.782074	 0.000000 
Ti129	 0.038040	 0.486836	 0.500000 
Ti130	 0.826930	 0.920064	 0.000000 
Ti131	 0.001066	 0.624826	 0.500000 
#                 ---end-of-data-block---
