data_TiO2_rutile [100] nx 10 ny 7 nz 1
_cell_length_a               32.158000
_cell_length_b               32.158000
_cell_length_c               4.594000
_cell_angle_alpha          90.000000
_cell_angle_beta           90.000000
_cell_angle_gamma          90.000000
_symmetry_cell_setting          Triclinic
_symmetry_space_group_name_H-M 'P 1' 
loop_
_atom_site_label
_atom_site_fract_x
_atom_site_fract_y
_atom_site_fract_z
Ti1	 0.304436	 0.000741	 0.000000 
Ti2	 0.233007	 0.124459	 0.000000 
Ti3	 0.308565	 0.085603	 0.500000 
Ti4	 0.161579	 0.248177	 0.000000 
Ti5	 0.237136	 0.209321	 0.500000 
Ti6	 0.090150	 0.371894	 0.000000 
Ti7	 0.165708	 0.333039	 0.500000 
Ti8	 0.018721	 0.495612	 0.000000 
Ti9	 0.094279	 0.456757	 0.500000 
Ti10	 0.022850	 0.580475	 0.500000 
Ti11	 0.384122	 0.046748	 0.000000 
Ti12	 0.459680	 0.007893	 0.500000 
Ti13	 0.312694	 0.170466	 0.000000 
Ti14	 0.388252	 0.131611	 0.500000 
Ti15	 0.241265	 0.294184	 0.000000 
Ti16	 0.316823	 0.255328	 0.500000 
Ti17	 0.169837	 0.417902	 0.000000 
Ti18	 0.245394	 0.379046	 0.500000 
Ti19	 0.098408	 0.541620	 0.000000 
Ti20	 0.173966	 0.502764	 0.500000 
Ti21	 0.026980	 0.665338	 0.000000 
Ti22	 0.102537	 0.626482	 0.500000 
Ti23	 0.031109	 0.750200	 0.500000 
Ti24	 0.463809	 0.092755	 0.000000 
Ti25	 0.539367	 0.053900	 0.500000 
Ti26	 0.392381	 0.216473	 0.000000 
Ti27	 0.467938	 0.177618	 0.500000 
Ti28	 0.320952	 0.340191	 0.000000 
Ti29	 0.396510	 0.301336	 0.500000 
Ti30	 0.249524	 0.463909	 0.000000 
Ti31	 0.325081	 0.425054	 0.500000 
Ti32	 0.178095	 0.587627	 0.000000 
Ti33	 0.253653	 0.548771	 0.500000 
Ti34	 0.106666	 0.711345	 0.000000 
Ti35	 0.182224	 0.672489	 0.500000 
Ti36	 0.110796	 0.796207	 0.500000 
Ti37	 0.543496	 0.138762	 0.000000 
Ti38	 0.619054	 0.099907	 0.500000 
Ti39	 0.472068	 0.262480	 0.000000 
Ti40	 0.547625	 0.223625	 0.500000 
Ti41	 0.400639	 0.386198	 0.000000 
Ti42	 0.476197	 0.347343	 0.500000 
Ti43	 0.329210	 0.509916	 0.000000 
Ti44	 0.404768	 0.471061	 0.500000 
Ti45	 0.257782	 0.633634	 0.000000 
Ti46	 0.333340	 0.594779	 0.500000 
Ti47	 0.186353	 0.757352	 0.000000 
Ti48	 0.261911	 0.718497	 0.500000 
Ti49	 0.614925	 0.015044	 0.000000 
Ti50	 0.190482	 0.842215	 0.500000 
Ti51	 0.623183	 0.184770	 0.000000 
Ti52	 0.698741	 0.145914	 0.500000 
Ti53	 0.551754	 0.308488	 0.000000 
Ti54	 0.627312	 0.269632	 0.500000 
Ti55	 0.480326	 0.432205	 0.000000 
Ti56	 0.555884	 0.393350	 0.500000 
Ti57	 0.408897	 0.555923	 0.000000 
Ti58	 0.484455	 0.517068	 0.500000 
Ti59	 0.337469	 0.679641	 0.000000 
Ti60	 0.413026	 0.640786	 0.500000 
Ti61	 0.266040	 0.803359	 0.000000 
Ti62	 0.341598	 0.764504	 0.500000 
Ti63	 0.694612	 0.061052	 0.000000 
Ti64	 0.270169	 0.888222	 0.500000 
Ti65	 0.702870	 0.230777	 0.000000 
Ti66	 0.778428	 0.191921	 0.500000 
Ti67	 0.631441	 0.354495	 0.000000 
Ti68	 0.706999	 0.315639	 0.500000 
Ti69	 0.560013	 0.478213	 0.000000 
Ti70	 0.635570	 0.439357	 0.500000 
Ti71	 0.488584	 0.601931	 0.000000 
Ti72	 0.564142	 0.563075	 0.500000 
Ti73	 0.417156	 0.725648	 0.000000 
Ti74	 0.492713	 0.686793	 0.500000 
Ti75	 0.345727	 0.849366	 0.000000 
Ti76	 0.421285	 0.810511	 0.500000 
Ti77	 0.774298	 0.107059	 0.000000 
Ti78	 0.349856	 0.934229	 0.500000 
Ti79	 0.782557	 0.276784	 0.000000 
Ti80	 0.858114	 0.237929	 0.500000 
Ti81	 0.711128	 0.400502	 0.000000 
Ti82	 0.786686	 0.361647	 0.500000 
Ti83	 0.639700	 0.524220	 0.000000 
Ti84	 0.715257	 0.485364	 0.500000 
Ti85	 0.568271	 0.647938	 0.000000 
Ti86	 0.643829	 0.609082	 0.500000 
Ti87	 0.496842	 0.771656	 0.000000 
Ti88	 0.572400	 0.732800	 0.500000 
Ti89	 0.425414	 0.895374	 0.000000 
Ti90	 0.500971	 0.856518	 0.500000 
Ti91	 0.853985	 0.153066	 0.000000 
Ti92	 0.429543	 0.980236	 0.500000 
Ti93	 0.862243	 0.322791	 0.000000 
Ti94	 0.937801	 0.283936	 0.500000 
Ti95	 0.790815	 0.446509	 0.000000 
Ti96	 0.866373	 0.407654	 0.500000 
Ti97	 0.719386	 0.570227	 0.000000 
Ti98	 0.794944	 0.531372	 0.500000 
Ti99	 0.647958	 0.693945	 0.000000 
Ti100	 0.723515	 0.655090	 0.500000 
Ti101	 0.576529	 0.817663	 0.000000 
Ti102	 0.652087	 0.778808	 0.500000 
Ti103	 0.505101	 0.941381	 0.000000 
Ti104	 0.580658	 0.902525	 0.500000 
Ti105	 0.933672	 0.199073	 0.000000 
Ti106	 0.941930	 0.368798	 0.000000 
Ti107	 0.870502	 0.492516	 0.000000 
Ti108	 0.946059	 0.453661	 0.500000 
Ti109	 0.799073	 0.616234	 0.000000 
Ti110	 0.874631	 0.577379	 0.500000 
Ti111	 0.727645	 0.739952	 0.000000 
Ti112	 0.803202	 0.701097	 0.500000 
Ti113	 0.656216	 0.863670	 0.000000 
Ti114	 0.731774	 0.824815	 0.500000 
Ti115	 0.584787	 0.987388	 0.000000 
Ti116	 0.660345	 0.948533	 0.500000 
Ti117	 0.950189	 0.538524	 0.000000 
Ti118	 0.878760	 0.662241	 0.000000 
Ti119	 0.954318	 0.623386	 0.500000 
Ti120	 0.807331	 0.785959	 0.000000 
Ti121	 0.882889	 0.747104	 0.500000 
Ti122	 0.735903	 0.909677	 0.000000 
Ti123	 0.811461	 0.870822	 0.500000 
Ti124	 0.740032	 0.994540	 0.500000 
#                 ---end-of-data-block---
