data_TiO2_rutile [110] nx 10 ny 5 nz 1
_cell_length_a               32.484485
_cell_length_b               32.484485
_cell_length_c               6.496897
_cell_angle_alpha          90.000000
_cell_angle_beta           90.000000
_cell_angle_gamma          90.000000
_symmetry_cell_setting          Triclinic
_symmetry_space_group_name_H-M 'P 1' 
loop_
_atom_site_label
_atom_site_fract_x
_atom_site_fract_y
_atom_site_fract_z
Ti1	 0.361845	 0.030537	 0.000000 
Ti2	 0.291134	 0.101247	 0.500000 
Ti3	 0.323339	 0.133452	 0.000000 
Ti4	 0.394050	 0.062742	 0.500000 
Ti5	 0.220423	 0.171958	 0.000000 
Ti6	 0.149712	 0.242669	 0.500000 
Ti7	 0.181918	 0.274874	 0.000000 
Ti8	 0.252628	 0.204163	 0.500000 
Ti9	 0.079002	 0.313379	 0.000000 
Ti10	 0.008291	 0.384090	 0.500000 
Ti11	 0.040496	 0.416295	 0.000000 
Ti12	 0.111207	 0.345584	 0.500000 
Ti13	 0.496965	 0.024236	 0.500000 
Ti14	 0.529170	 0.056441	 0.000000 
Ti15	 0.426255	 0.094947	 0.000000 
Ti16	 0.355544	 0.165657	 0.500000 
Ti17	 0.387749	 0.197862	 0.000000 
Ti18	 0.458460	 0.127152	 0.500000 
Ti19	 0.284833	 0.236368	 0.000000 
Ti20	 0.214123	 0.307079	 0.500000 
Ti21	 0.246328	 0.339284	 0.000000 
Ti22	 0.317038	 0.268573	 0.500000 
Ti23	 0.143412	 0.377789	 0.000000 
Ti24	 0.072701	 0.448500	 0.500000 
Ti25	 0.104906	 0.480705	 0.000000 
Ti26	 0.175617	 0.409994	 0.500000 
Ti27	 0.001991	 0.519211	 0.000000 
Ti28	 0.034196	 0.551416	 0.500000 
Ti29	 0.632086	 0.017935	 0.000000 
Ti30	 0.561375	 0.088646	 0.500000 
Ti31	 0.593580	 0.120851	 0.000000 
Ti32	 0.664291	 0.050140	 0.500000 
Ti33	 0.490665	 0.159357	 0.000000 
Ti34	 0.419954	 0.230067	 0.500000 
Ti35	 0.452159	 0.262272	 0.000000 
Ti36	 0.522870	 0.191562	 0.500000 
Ti37	 0.349243	 0.300778	 0.000000 
Ti38	 0.278533	 0.371489	 0.500000 
Ti39	 0.310738	 0.403694	 0.000000 
Ti40	 0.381448	 0.332983	 0.500000 
Ti41	 0.207822	 0.442199	 0.000000 
Ti42	 0.137111	 0.512910	 0.500000 
Ti43	 0.169316	 0.545115	 0.000000 
Ti44	 0.240027	 0.474404	 0.500000 
Ti45	 0.066401	 0.583621	 0.000000 
Ti46	 0.027895	 0.686537	 0.000000 
Ti47	 0.098606	 0.615826	 0.500000 
Ti48	 0.696496	 0.082345	 0.000000 
Ti49	 0.625785	 0.153056	 0.500000 
Ti50	 0.657991	 0.185261	 0.000000 
Ti51	 0.728701	 0.114551	 0.500000 
Ti52	 0.555075	 0.223767	 0.000000 
Ti53	 0.484364	 0.294478	 0.500000 
Ti54	 0.516569	 0.326683	 0.000000 
Ti55	 0.587280	 0.255972	 0.500000 
Ti56	 0.413653	 0.365188	 0.000000 
Ti57	 0.342943	 0.435899	 0.500000 
Ti58	 0.375148	 0.468104	 0.000000 
Ti59	 0.445859	 0.397393	 0.500000 
Ti60	 0.272232	 0.506610	 0.000000 
Ti61	 0.201521	 0.577320	 0.500000 
Ti62	 0.233726	 0.609525	 0.000000 
Ti63	 0.304437	 0.538815	 0.500000 
Ti64	 0.130811	 0.648031	 0.000000 
Ti65	 0.060100	 0.718742	 0.500000 
Ti66	 0.092305	 0.750947	 0.000000 
Ti67	 0.163016	 0.680236	 0.500000 
Ti68	 0.760906	 0.146756	 0.000000 
Ti69	 0.690196	 0.217466	 0.500000 
Ti70	 0.722401	 0.249671	 0.000000 
Ti71	 0.793111	 0.178961	 0.500000 
Ti72	 0.619485	 0.288177	 0.000000 
Ti73	 0.548774	 0.358888	 0.500000 
Ti74	 0.580979	 0.391093	 0.000000 
Ti75	 0.651690	 0.320382	 0.500000 
Ti76	 0.478064	 0.429598	 0.000000 
Ti77	 0.407353	 0.500309	 0.500000 
Ti78	 0.439558	 0.532514	 0.000000 
Ti79	 0.510269	 0.461803	 0.500000 
Ti80	 0.336642	 0.571020	 0.000000 
Ti81	 0.265932	 0.641730	 0.500000 
Ti82	 0.298137	 0.673935	 0.000000 
Ti83	 0.368847	 0.603225	 0.500000 
Ti84	 0.195221	 0.712441	 0.000000 
Ti85	 0.124510	 0.783152	 0.500000 
Ti86	 0.156715	 0.815357	 0.000000 
Ti87	 0.227426	 0.744646	 0.500000 
Ti88	 0.825316	 0.211166	 0.000000 
Ti89	 0.754606	 0.281876	 0.500000 
Ti90	 0.786811	 0.314081	 0.000000 
Ti91	 0.857521	 0.243371	 0.500000 
Ti92	 0.683895	 0.352587	 0.000000 
Ti93	 0.613184	 0.423298	 0.500000 
Ti94	 0.645389	 0.455503	 0.000000 
Ti95	 0.716100	 0.384792	 0.500000 
Ti96	 0.542474	 0.494008	 0.000000 
Ti97	 0.471763	 0.564719	 0.500000 
Ti98	 0.503968	 0.596924	 0.000000 
Ti99	 0.574679	 0.526213	 0.500000 
Ti100	 0.401052	 0.635430	 0.000000 
Ti101	 0.330342	 0.706140	 0.500000 
Ti102	 0.362547	 0.738345	 0.000000 
Ti103	 0.433257	 0.667635	 0.500000 
Ti104	 0.259631	 0.776851	 0.000000 
Ti105	 0.188920	 0.847562	 0.500000 
Ti106	 0.221125	 0.879767	 0.000000 
Ti107	 0.291836	 0.809056	 0.500000 
Ti108	 0.889726	 0.275576	 0.000000 
Ti109	 0.819016	 0.346286	 0.500000 
Ti110	 0.851221	 0.378491	 0.000000 
Ti111	 0.921932	 0.307781	 0.500000 
Ti112	 0.748305	 0.416997	 0.000000 
Ti113	 0.677594	 0.487708	 0.500000 
Ti114	 0.709799	 0.519913	 0.000000 
Ti115	 0.780510	 0.449202	 0.500000 
Ti116	 0.606884	 0.558418	 0.000000 
Ti117	 0.536173	 0.629129	 0.500000 
Ti118	 0.568378	 0.661334	 0.000000 
Ti119	 0.639089	 0.590624	 0.500000 
Ti120	 0.465462	 0.699840	 0.000000 
Ti121	 0.394752	 0.770551	 0.500000 
Ti122	 0.426957	 0.802756	 0.000000 
Ti123	 0.497667	 0.732045	 0.500000 
Ti124	 0.324041	 0.841261	 0.000000 
Ti125	 0.253330	 0.911972	 0.500000 
Ti126	 0.285535	 0.944177	 0.000000 
Ti127	 0.356246	 0.873466	 0.500000 
Ti128	 0.954137	 0.339986	 0.000000 
Ti129	 0.883426	 0.410697	 0.500000 
Ti130	 0.915631	 0.442902	 0.000000 
Ti131	 0.986342	 0.372191	 0.500000 
Ti132	 0.812715	 0.481407	 0.000000 
Ti133	 0.742005	 0.552118	 0.500000 
Ti134	 0.774210	 0.584323	 0.000000 
Ti135	 0.844920	 0.513612	 0.500000 
Ti136	 0.671294	 0.622829	 0.000000 
Ti137	 0.600583	 0.693539	 0.500000 
Ti138	 0.632788	 0.725744	 0.000000 
Ti139	 0.703499	 0.655034	 0.500000 
Ti140	 0.529873	 0.764250	 0.000000 
Ti141	 0.459162	 0.834961	 0.500000 
Ti142	 0.491367	 0.867166	 0.000000 
Ti143	 0.562078	 0.796455	 0.500000 
Ti144	 0.388451	 0.905671	 0.000000 
Ti145	 0.317740	 0.976382	 0.500000 
Ti146	 0.420656	 0.937876	 0.500000 
Ti147	 0.947836	 0.475107	 0.500000 
Ti148	 0.980041	 0.507312	 0.000000 
Ti149	 0.877125	 0.545817	 0.000000 
Ti150	 0.806415	 0.616528	 0.500000 
Ti151	 0.838620	 0.648733	 0.000000 
Ti152	 0.909330	 0.578022	 0.500000 
Ti153	 0.735704	 0.687239	 0.000000 
Ti154	 0.664993	 0.757949	 0.500000 
Ti155	 0.697198	 0.790154	 0.000000 
Ti156	 0.767909	 0.719444	 0.500000 
Ti157	 0.594283	 0.828660	 0.000000 
Ti158	 0.523572	 0.899371	 0.500000 
Ti159	 0.555777	 0.931576	 0.000000 
Ti160	 0.626488	 0.860865	 0.500000 
Ti161	 0.452861	 0.970081	 0.000000 
Ti162	 0.941535	 0.610227	 0.000000 
Ti163	 0.870825	 0.680938	 0.500000 
Ti164	 0.903030	 0.713143	 0.000000 
Ti165	 0.973740	 0.642432	 0.500000 
Ti166	 0.800114	 0.751649	 0.000000 
Ti167	 0.729403	 0.822359	 0.500000 
Ti168	 0.761608	 0.854565	 0.000000 
Ti169	 0.832319	 0.783854	 0.500000 
Ti170	 0.658693	 0.893070	 0.000000 
Ti171	 0.587982	 0.963781	 0.500000 
Ti172	 0.620187	 0.995986	 0.000000 
Ti173	 0.690898	 0.925275	 0.500000 
#                 ---end-of-data-block---
