data_Si [110] nx 8 ny 6 nz 1
_cell_length_a               32.580000
_cell_length_b               32.580000
_cell_length_c               3.839590
_cell_angle_alpha          90.000000
_cell_angle_beta           90.000000
_cell_angle_gamma          90.000000
_symmetry_cell_setting          Triclinic
_symmetry_space_group_name_H-M 'P 1' 
loop_
_atom_site_label
_atom_site_fract_x
_atom_site_fract_y
_atom_site_fract_z
Si1	 0.473814	 0.009739	 0.000000 
Si2	 0.355962	 0.127590	 0.000000 
Si3	 0.373221	 0.026998	 0.500000 
Si4	 0.385425	 0.098127	 0.500000 
Si5	 0.284833	 0.115386	 0.000000 
Si6	 0.238111	 0.245441	 0.000000 
Si7	 0.255370	 0.144849	 0.500000 
Si8	 0.267574	 0.215979	 0.500000 
Si9	 0.166982	 0.233237	 0.000000 
Si10	 0.120260	 0.363292	 0.000000 
Si11	 0.137519	 0.262700	 0.500000 
Si12	 0.149723	 0.333830	 0.500000 
Si13	 0.049131	 0.351089	 0.000000 
Si14	 0.002409	 0.481144	 0.000000 
Si15	 0.019668	 0.380551	 0.500000 
Si16	 0.031872	 0.451681	 0.500000 
Si17	 0.557147	 0.093072	 0.000000 
Si18	 0.586610	 0.063610	 0.500000 
Si19	 0.486017	 0.080868	 0.000000 
Si20	 0.439296	 0.210923	 0.000000 
Si21	 0.456555	 0.110331	 0.500000 
Si22	 0.468759	 0.181461	 0.500000 
Si23	 0.368166	 0.198720	 0.000000 
Si24	 0.321445	 0.328775	 0.000000 
Si25	 0.338704	 0.228182	 0.500000 
Si26	 0.350907	 0.299312	 0.500000 
Si27	 0.250315	 0.316571	 0.000000 
Si28	 0.203594	 0.446626	 0.000000 
Si29	 0.220852	 0.346034	 0.500000 
Si30	 0.233056	 0.417163	 0.500000 
Si31	 0.132464	 0.434422	 0.000000 
Si32	 0.085742	 0.564477	 0.000000 
Si33	 0.103001	 0.463885	 0.500000 
Si34	 0.115205	 0.535014	 0.500000 
Si35	 0.014613	 0.552273	 0.000000 
Si36	 0.687202	 0.046351	 0.000000 
Si37	 0.640480	 0.176406	 0.000000 
Si38	 0.657739	 0.075813	 0.500000 
Si39	 0.669943	 0.146943	 0.500000 
Si40	 0.569351	 0.164202	 0.000000 
Si41	 0.522629	 0.294257	 0.000000 
Si42	 0.539888	 0.193665	 0.500000 
Si43	 0.552092	 0.264794	 0.500000 
Si44	 0.451500	 0.282053	 0.000000 
Si45	 0.404778	 0.412108	 0.000000 
Si46	 0.422037	 0.311516	 0.500000 
Si47	 0.434241	 0.382645	 0.500000 
Si48	 0.333649	 0.399904	 0.000000 
Si49	 0.286927	 0.529959	 0.000000 
Si50	 0.304186	 0.429367	 0.500000 
Si51	 0.316390	 0.500496	 0.500000 
Si52	 0.215797	 0.517755	 0.000000 
Si53	 0.169076	 0.647810	 0.000000 
Si54	 0.186335	 0.547218	 0.500000 
Si55	 0.198538	 0.618347	 0.500000 
Si56	 0.097946	 0.635606	 0.000000 
Si57	 0.758331	 0.058555	 0.000000 
Si58	 0.068483	 0.665069	 0.500000 
Si59	 0.080687	 0.736199	 0.500000 
Si60	 0.770535	 0.129684	 0.000000 
Si61	 0.723814	 0.259739	 0.000000 
Si62	 0.741072	 0.159147	 0.500000 
Si63	 0.753276	 0.230276	 0.500000 
Si64	 0.652684	 0.247535	 0.000000 
Si65	 0.605962	 0.377590	 0.000000 
Si66	 0.623221	 0.276998	 0.500000 
Si67	 0.635425	 0.348127	 0.500000 
Si68	 0.534833	 0.365386	 0.000000 
Si69	 0.488111	 0.495441	 0.000000 
Si70	 0.505370	 0.394849	 0.500000 
Si71	 0.517574	 0.465979	 0.500000 
Si72	 0.416982	 0.483237	 0.000000 
Si73	 0.370260	 0.613292	 0.000000 
Si74	 0.387519	 0.512700	 0.500000 
Si75	 0.399723	 0.583830	 0.500000 
Si76	 0.299131	 0.601089	 0.000000 
Si77	 0.252409	 0.731144	 0.000000 
Si78	 0.269668	 0.630551	 0.500000 
Si79	 0.281872	 0.701681	 0.500000 
Si80	 0.181280	 0.718940	 0.000000 
Si81	 0.841665	 0.141888	 0.000000 
Si82	 0.151817	 0.748402	 0.500000 
Si83	 0.164021	 0.819532	 0.500000 
Si84	 0.853869	 0.213017	 0.000000 
Si85	 0.807147	 0.343072	 0.000000 
Si86	 0.824406	 0.242480	 0.500000 
Si87	 0.836610	 0.313610	 0.500000 
Si88	 0.736017	 0.330868	 0.000000 
Si89	 0.689296	 0.460923	 0.000000 
Si90	 0.706555	 0.360331	 0.500000 
Si91	 0.718759	 0.431461	 0.500000 
Si92	 0.618166	 0.448720	 0.000000 
Si93	 0.571445	 0.578775	 0.000000 
Si94	 0.588704	 0.478182	 0.500000 
Si95	 0.600907	 0.549312	 0.500000 
Si96	 0.500315	 0.566571	 0.000000 
Si97	 0.453594	 0.696626	 0.000000 
Si98	 0.470852	 0.596034	 0.500000 
Si99	 0.483056	 0.667163	 0.500000 
Si100	 0.382464	 0.684422	 0.000000 
Si101	 0.335742	 0.814477	 0.000000 
Si102	 0.353001	 0.713885	 0.500000 
Si103	 0.365205	 0.785014	 0.500000 
Si104	 0.264613	 0.802273	 0.000000 
Si105	 0.924998	 0.225221	 0.000000 
Si106	 0.235150	 0.831736	 0.500000 
Si107	 0.247354	 0.902865	 0.500000 
Si108	 0.937202	 0.296351	 0.000000 
Si109	 0.890480	 0.426406	 0.000000 
Si110	 0.907739	 0.325813	 0.500000 
Si111	 0.919943	 0.396943	 0.500000 
Si112	 0.819351	 0.414202	 0.000000 
Si113	 0.772629	 0.544257	 0.000000 
Si114	 0.789888	 0.443665	 0.500000 
Si115	 0.802092	 0.514794	 0.500000 
Si116	 0.701500	 0.532053	 0.000000 
Si117	 0.654778	 0.662108	 0.000000 
Si118	 0.672037	 0.561516	 0.500000 
Si119	 0.684241	 0.632645	 0.500000 
Si120	 0.583649	 0.649904	 0.000000 
Si121	 0.536927	 0.779959	 0.000000 
Si122	 0.554186	 0.679367	 0.500000 
Si123	 0.566390	 0.750496	 0.500000 
Si124	 0.465797	 0.767755	 0.000000 
Si125	 0.419076	 0.897810	 0.000000 
Si126	 0.436335	 0.797218	 0.500000 
Si127	 0.448538	 0.868347	 0.500000 
Si128	 0.347946	 0.885606	 0.000000 
Si129	 0.318483	 0.915069	 0.500000 
Si130	 0.330687	 0.986199	 0.500000 
Si131	 0.973814	 0.509739	 0.000000 
Si132	 0.991072	 0.409147	 0.500000 
Si133	 0.902684	 0.497535	 0.000000 
Si134	 0.855962	 0.627590	 0.000000 
Si135	 0.873221	 0.526998	 0.500000 
Si136	 0.885425	 0.598127	 0.500000 
Si137	 0.784833	 0.615386	 0.000000 
Si138	 0.738111	 0.745441	 0.000000 
Si139	 0.755370	 0.644849	 0.500000 
Si140	 0.767574	 0.715979	 0.500000 
Si141	 0.666982	 0.733237	 0.000000 
Si142	 0.620260	 0.863292	 0.000000 
Si143	 0.637519	 0.762700	 0.500000 
Si144	 0.649723	 0.833830	 0.500000 
Si145	 0.549131	 0.851089	 0.000000 
Si146	 0.502409	 0.981144	 0.000000 
Si147	 0.519668	 0.880551	 0.500000 
Si148	 0.531872	 0.951681	 0.500000 
Si149	 0.431280	 0.968940	 0.000000 
Si150	 0.401817	 0.998402	 0.500000 
Si151	 0.986017	 0.580868	 0.000000 
Si152	 0.939296	 0.710923	 0.000000 
Si153	 0.956555	 0.610331	 0.500000 
Si154	 0.968759	 0.681461	 0.500000 
Si155	 0.868166	 0.698720	 0.000000 
Si156	 0.821445	 0.828775	 0.000000 
Si157	 0.838704	 0.728182	 0.500000 
Si158	 0.850907	 0.799312	 0.500000 
Si159	 0.750315	 0.816571	 0.000000 
Si160	 0.703594	 0.946626	 0.000000 
Si161	 0.720852	 0.846034	 0.500000 
Si162	 0.733056	 0.917163	 0.500000 
Si163	 0.632464	 0.934422	 0.000000 
Si164	 0.603001	 0.963885	 0.500000 
#                 ---end-of-data-block---
