data_Si [110] nx 8 ny 6 nz 1
_cell_length_a               32.580000
_cell_length_b               32.580000
_cell_length_c               3.839590
_cell_angle_alpha          90.000000
_cell_angle_beta           90.000000
_cell_angle_gamma          90.000000
_symmetry_cell_setting          Triclinic
_symmetry_space_group_name_H-M 'P 1' 
loop_
_atom_site_label
_atom_site_fract_x
_atom_site_fract_y
_atom_site_fract_z
Si1	 0.847895	 0.001422	 0.000000 
Si2	 0.742406	 0.090692	 0.000000 
Si3	 0.807648	 0.012206	 0.500000 
Si4	 0.782652	 0.079908	 0.500000 
Si5	 0.686908	 0.044558	 0.000000 
Si6	 0.581418	 0.133829	 0.000000 
Si7	 0.646661	 0.055343	 0.500000 
Si8	 0.621665	 0.123044	 0.500000 
Si9	 0.525920	 0.087695	 0.000000 
Si10	 0.420430	 0.176965	 0.000000 
Si11	 0.485673	 0.098479	 0.500000 
Si12	 0.460677	 0.166181	 0.500000 
Si13	 0.364932	 0.130831	 0.000000 
Si14	 0.259443	 0.220102	 0.000000 
Si15	 0.324685	 0.141616	 0.500000 
Si16	 0.299690	 0.209317	 0.500000 
Si17	 0.203945	 0.173968	 0.000000 
Si18	 0.098455	 0.263238	 0.000000 
Si19	 0.163698	 0.184752	 0.500000 
Si20	 0.138702	 0.252454	 0.500000 
Si21	 0.042957	 0.217105	 0.000000 
Si22	 0.002710	 0.227889	 0.500000 
Si23	 0.878397	 0.115257	 0.000000 
Si24	 0.772908	 0.204528	 0.000000 
Si25	 0.838150	 0.126042	 0.500000 
Si26	 0.813155	 0.193743	 0.500000 
Si27	 0.717410	 0.158394	 0.000000 
Si28	 0.611920	 0.247664	 0.000000 
Si29	 0.677163	 0.169178	 0.500000 
Si30	 0.652167	 0.236880	 0.500000 
Si31	 0.556422	 0.201530	 0.000000 
Si32	 0.450932	 0.290801	 0.000000 
Si33	 0.516175	 0.212315	 0.500000 
Si34	 0.491179	 0.280016	 0.500000 
Si35	 0.395434	 0.244667	 0.000000 
Si36	 0.289945	 0.333937	 0.000000 
Si37	 0.355188	 0.255451	 0.500000 
Si38	 0.330192	 0.323153	 0.500000 
Si39	 0.234447	 0.287803	 0.000000 
Si40	 0.128957	 0.377074	 0.000000 
Si41	 0.194200	 0.298588	 0.500000 
Si42	 0.169204	 0.366289	 0.500000 
Si43	 0.073459	 0.330940	 0.000000 
Si44	 0.033212	 0.341724	 0.500000 
Si45	 0.008216	 0.409426	 0.500000 
Si46	 0.908899	 0.229093	 0.000000 
Si47	 0.803410	 0.318363	 0.000000 
Si48	 0.868653	 0.239877	 0.500000 
Si49	 0.843657	 0.307579	 0.500000 
Si50	 0.747912	 0.272229	 0.000000 
Si51	 0.642422	 0.361499	 0.000000 
Si52	 0.707665	 0.283014	 0.500000 
Si53	 0.682669	 0.350715	 0.500000 
Si54	 0.586924	 0.315366	 0.000000 
Si55	 0.481434	 0.404636	 0.000000 
Si56	 0.546677	 0.326150	 0.500000 
Si57	 0.521681	 0.393852	 0.500000 
Si58	 0.425937	 0.358502	 0.000000 
Si59	 0.320447	 0.447772	 0.000000 
Si60	 0.385690	 0.369287	 0.500000 
Si61	 0.360694	 0.436988	 0.500000 
Si62	 0.264949	 0.401639	 0.000000 
Si63	 0.159459	 0.490909	 0.000000 
Si64	 0.224702	 0.412423	 0.500000 
Si65	 0.199706	 0.480125	 0.500000 
Si66	 0.103961	 0.444775	 0.000000 
Si67	 0.063714	 0.455560	 0.500000 
Si68	 0.038718	 0.523261	 0.500000 
Si69	 0.939402	 0.342928	 0.000000 
Si70	 0.833912	 0.432198	 0.000000 
Si71	 0.899155	 0.353712	 0.500000 
Si72	 0.874159	 0.421414	 0.500000 
Si73	 0.778414	 0.386065	 0.000000 
Si74	 0.672924	 0.475335	 0.000000 
Si75	 0.738167	 0.396849	 0.500000 
Si76	 0.713171	 0.464551	 0.500000 
Si77	 0.617426	 0.429201	 0.000000 
Si78	 0.511937	 0.518471	 0.000000 
Si79	 0.577179	 0.439985	 0.500000 
Si80	 0.552184	 0.507687	 0.500000 
Si81	 0.456439	 0.472338	 0.000000 
Si82	 0.350949	 0.561608	 0.000000 
Si83	 0.416192	 0.483122	 0.500000 
Si84	 0.391196	 0.550824	 0.500000 
Si85	 0.295451	 0.515474	 0.000000 
Si86	 0.189961	 0.604744	 0.000000 
Si87	 0.255204	 0.526258	 0.500000 
Si88	 0.230208	 0.593960	 0.500000 
Si89	 0.134463	 0.558611	 0.000000 
Si90	 0.028974	 0.647881	 0.000000 
Si91	 0.094216	 0.569395	 0.500000 
Si92	 0.069221	 0.637097	 0.500000 
Si93	 0.969904	 0.456764	 0.000000 
Si94	 0.864414	 0.546034	 0.000000 
Si95	 0.929657	 0.467548	 0.500000 
Si96	 0.904661	 0.535250	 0.500000 
Si97	 0.808916	 0.499900	 0.000000 
Si98	 0.703426	 0.589170	 0.000000 
Si99	 0.768669	 0.510684	 0.500000 
Si100	 0.743673	 0.578386	 0.500000 
Si101	 0.647928	 0.543037	 0.000000 
Si102	 0.542439	 0.632307	 0.000000 
Si103	 0.607681	 0.553821	 0.500000 
Si104	 0.582686	 0.621523	 0.500000 
Si105	 0.486941	 0.586173	 0.000000 
Si106	 0.381451	 0.675443	 0.000000 
Si107	 0.446694	 0.596957	 0.500000 
Si108	 0.421698	 0.664659	 0.500000 
Si109	 0.325953	 0.629310	 0.000000 
Si110	 0.220463	 0.718580	 0.000000 
Si111	 0.285706	 0.640094	 0.500000 
Si112	 0.260710	 0.707796	 0.500000 
Si113	 0.164965	 0.672446	 0.000000 
Si114	 0.059476	 0.761716	 0.000000 
Si115	 0.124719	 0.683230	 0.500000 
Si116	 0.099723	 0.750932	 0.500000 
Si117	 0.894916	 0.659869	 0.000000 
Si118	 0.960159	 0.581383	 0.500000 
Si119	 0.935163	 0.649085	 0.500000 
Si120	 0.839418	 0.613736	 0.000000 
Si121	 0.733928	 0.703006	 0.000000 
Si122	 0.799171	 0.624520	 0.500000 
Si123	 0.774175	 0.692222	 0.500000 
Si124	 0.678431	 0.656872	 0.000000 
Si125	 0.572941	 0.746142	 0.000000 
Si126	 0.638184	 0.667656	 0.500000 
Si127	 0.613188	 0.735358	 0.500000 
Si128	 0.517443	 0.700009	 0.000000 
Si129	 0.411953	 0.789279	 0.000000 
Si130	 0.477196	 0.710793	 0.500000 
Si131	 0.452200	 0.778495	 0.500000 
Si132	 0.356455	 0.743145	 0.000000 
Si133	 0.250966	 0.832415	 0.000000 
Si134	 0.316208	 0.753929	 0.500000 
Si135	 0.291212	 0.821631	 0.500000 
Si136	 0.195468	 0.786282	 0.000000 
Si137	 0.089978	 0.875552	 0.000000 
Si138	 0.155221	 0.797066	 0.500000 
Si139	 0.130225	 0.864768	 0.500000 
Si140	 0.925418	 0.773705	 0.000000 
Si141	 0.990661	 0.695219	 0.500000 
Si142	 0.965665	 0.762921	 0.500000 
Si143	 0.869920	 0.727571	 0.000000 
Si144	 0.764431	 0.816841	 0.000000 
Si145	 0.829673	 0.738355	 0.500000 
Si146	 0.804678	 0.806057	 0.500000 
Si147	 0.708933	 0.770708	 0.000000 
Si148	 0.603443	 0.859978	 0.000000 
Si149	 0.668686	 0.781492	 0.500000 
Si150	 0.643690	 0.849194	 0.500000 
Si151	 0.547945	 0.813844	 0.000000 
Si152	 0.442455	 0.903114	 0.000000 
Si153	 0.507698	 0.824628	 0.500000 
Si154	 0.482702	 0.892330	 0.500000 
Si155	 0.386957	 0.856981	 0.000000 
Si156	 0.281468	 0.946251	 0.000000 
Si157	 0.346710	 0.867765	 0.500000 
Si158	 0.321715	 0.935467	 0.500000 
Si159	 0.225970	 0.900117	 0.000000 
Si160	 0.120480	 0.989387	 0.000000 
Si161	 0.185723	 0.910901	 0.500000 
Si162	 0.160727	 0.978603	 0.500000 
Si163	 0.900422	 0.841407	 0.000000 
Si164	 0.550916	 0.019993	 0.000000 
Si165	 0.860175	 0.852191	 0.500000 
Si166	 0.591163	 0.009209	 0.500000 
Si167	 0.739435	 0.884543	 0.000000 
Si168	 0.389928	 0.063130	 0.000000 
Si169	 0.699188	 0.895327	 0.500000 
Si170	 0.430175	 0.052346	 0.500000 
Si171	 0.578447	 0.927680	 0.000000 
Si172	 0.228941	 0.106266	 0.000000 
Si173	 0.538200	 0.938464	 0.500000 
Si174	 0.269187	 0.095482	 0.500000 
Si175	 0.417459	 0.970816	 0.000000 
Si176	 0.067953	 0.149403	 0.000000 
Si177	 0.377213	 0.981600	 0.500000 
Si178	 0.108200	 0.138619	 0.500000 
#                 ---end-of-data-block---
