data_STO [001]8x8x1
_cell_length_a               31.240000
_cell_length_b               31.240000
_cell_length_c               3.905000
_cell_angle_alpha          90.000000
_cell_angle_beta           90.000000
_cell_angle_gamma          90.000000
_symmetry_cell_setting          Triclinic
_symmetry_space_group_name_H-M 'P 1' 
loop_
_atom_site_label
_atom_site_fract_x
_atom_site_fract_y
_atom_site_fract_z
Ti1	 0.298488	 0.053098	 0.500000 
Sr2	 0.213111	 0.075975	 0.000000 
Ti3	 0.235988	 0.161351	 0.500000 
Sr4	 0.150611	 0.184228	 0.000000 
Ti5	 0.173488	 0.269604	 0.500000 
Sr6	 0.088111	 0.292481	 0.000000 
Ti7	 0.110988	 0.377858	 0.500000 
Sr8	 0.025611	 0.400734	 0.000000 
Ti9	 0.048488	 0.486111	 0.500000 
Ti10	 0.469241	 0.007345	 0.500000 
Sr11	 0.383864	 0.030222	 0.000000 
Ti12	 0.406741	 0.115598	 0.500000 
Sr13	 0.321364	 0.138475	 0.000000 
Ti14	 0.344241	 0.223851	 0.500000 
Sr15	 0.258864	 0.246728	 0.000000 
Ti16	 0.281741	 0.332104	 0.500000 
Sr17	 0.196364	 0.354981	 0.000000 
Ti18	 0.219241	 0.440358	 0.500000 
Sr19	 0.133864	 0.463234	 0.000000 
Ti20	 0.156741	 0.548611	 0.500000 
Sr21	 0.071364	 0.571487	 0.000000 
Ti22	 0.094241	 0.656864	 0.500000 
Sr23	 0.008864	 0.679741	 0.000000 
Ti24	 0.031741	 0.765117	 0.500000 
Ti25	 0.577494	 0.069845	 0.500000 
Sr26	 0.492117	 0.092722	 0.000000 
Ti27	 0.514994	 0.178098	 0.500000 
Sr28	 0.429617	 0.200975	 0.000000 
Ti29	 0.452494	 0.286351	 0.500000 
Sr30	 0.367117	 0.309228	 0.000000 
Ti31	 0.389994	 0.394604	 0.500000 
Sr32	 0.304617	 0.417481	 0.000000 
Ti33	 0.327494	 0.502858	 0.500000 
Sr34	 0.242117	 0.525734	 0.000000 
Ti35	 0.264994	 0.611111	 0.500000 
Sr36	 0.179617	 0.633987	 0.000000 
Ti37	 0.202494	 0.719364	 0.500000 
Sr38	 0.117117	 0.742241	 0.000000 
Ti39	 0.139994	 0.827617	 0.500000 
Sr40	 0.662871	 0.046968	 0.000000 
Ti41	 0.685747	 0.132345	 0.500000 
Sr42	 0.600371	 0.155222	 0.000000 
Ti43	 0.623247	 0.240598	 0.500000 
Sr44	 0.537871	 0.263475	 0.000000 
Ti45	 0.560747	 0.348851	 0.500000 
Sr46	 0.475371	 0.371728	 0.000000 
Ti47	 0.498247	 0.457104	 0.500000 
Sr48	 0.412871	 0.479981	 0.000000 
Ti49	 0.435747	 0.565358	 0.500000 
Sr50	 0.350371	 0.588234	 0.000000 
Ti51	 0.373247	 0.673611	 0.500000 
Sr52	 0.287871	 0.696487	 0.000000 
Ti53	 0.310747	 0.781864	 0.500000 
Sr54	 0.225371	 0.804741	 0.000000 
Ti55	 0.248247	 0.890117	 0.500000 
Sr56	 0.771124	 0.109468	 0.000000 
Ti57	 0.794000	 0.194845	 0.500000 
Sr58	 0.708624	 0.217722	 0.000000 
Ti59	 0.731500	 0.303098	 0.500000 
Sr60	 0.646124	 0.325975	 0.000000 
Ti61	 0.669000	 0.411351	 0.500000 
Sr62	 0.583624	 0.434228	 0.000000 
Ti63	 0.606500	 0.519604	 0.500000 
Sr64	 0.521124	 0.542481	 0.000000 
Ti65	 0.544000	 0.627858	 0.500000 
Sr66	 0.458624	 0.650734	 0.000000 
Ti67	 0.481500	 0.736111	 0.500000 
Sr68	 0.396124	 0.758987	 0.000000 
Ti69	 0.419000	 0.844364	 0.500000 
Sr70	 0.333624	 0.867241	 0.000000 
Ti71	 0.356500	 0.952617	 0.500000 
Sr72	 0.879377	 0.171968	 0.000000 
Ti73	 0.902254	 0.257345	 0.500000 
Sr74	 0.816877	 0.280222	 0.000000 
Ti75	 0.839754	 0.365598	 0.500000 
Sr76	 0.754377	 0.388475	 0.000000 
Ti77	 0.777254	 0.473851	 0.500000 
Sr78	 0.691877	 0.496728	 0.000000 
Ti79	 0.714754	 0.582104	 0.500000 
Sr80	 0.629377	 0.604981	 0.000000 
Ti81	 0.652254	 0.690358	 0.500000 
Sr82	 0.566877	 0.713234	 0.000000 
Ti83	 0.589754	 0.798611	 0.500000 
Sr84	 0.504377	 0.821487	 0.000000 
Ti85	 0.527254	 0.906864	 0.500000 
Sr86	 0.441877	 0.929741	 0.000000 
Sr87	 0.987630	 0.234468	 0.000000 
Sr88	 0.925130	 0.342722	 0.000000 
Ti89	 0.948007	 0.428098	 0.500000 
Sr90	 0.862630	 0.450975	 0.000000 
Ti91	 0.885507	 0.536351	 0.500000 
Sr92	 0.800130	 0.559228	 0.000000 
Ti93	 0.823007	 0.644604	 0.500000 
Sr94	 0.737630	 0.667481	 0.000000 
Ti95	 0.760507	 0.752858	 0.500000 
Sr96	 0.675130	 0.775734	 0.000000 
Ti97	 0.698007	 0.861111	 0.500000 
Sr98	 0.612630	 0.883987	 0.000000 
Ti99	 0.635507	 0.969364	 0.500000 
Sr100	 0.550130	 0.992241	 0.000000 
Sr101	 0.970883	 0.513475	 0.000000 
Ti102	 0.993760	 0.598851	 0.500000 
Sr103	 0.908383	 0.621728	 0.000000 
Ti104	 0.931260	 0.707104	 0.500000 
Sr105	 0.845883	 0.729981	 0.000000 
Ti106	 0.868760	 0.815358	 0.500000 
Sr107	 0.783383	 0.838234	 0.000000 
Ti108	 0.806260	 0.923611	 0.500000 
Sr109	 0.720883	 0.946487	 0.000000 
#                 ---end-of-data-block---
