data_Pt structure along [001] nx 5 ny 8 nz 1
_cell_length_a               31.240000
_cell_length_b               31.240000
_cell_length_c               5.543717
_cell_angle_alpha          90.000000
_cell_angle_beta           90.000000
_cell_angle_gamma          90.000000
_symmetry_cell_setting          Triclinic
_symmetry_space_group_name_H-M 'P 1' 
loop_
_atom_site_label
_atom_site_fract_x
_atom_site_fract_y
_atom_site_fract_z
Ti1	 0.314730	 0.123446	 0.000000 
Sr2	 0.416283	 0.085953	 0.000000 
Ti3	 0.400106	 0.146323	 0.500000 
Sr4	 0.330906	 0.063076	 0.500000 
Ti5	 0.282377	 0.244187	 0.000000 
Sr6	 0.383930	 0.206693	 0.000000 
Ti7	 0.367754	 0.267064	 0.500000 
Sr8	 0.298554	 0.183817	 0.500000 
Ti9	 0.250025	 0.364928	 0.000000 
Sr10	 0.351578	 0.327434	 0.000000 
Ti11	 0.335402	 0.387804	 0.500000 
Sr12	 0.266201	 0.304557	 0.500000 
Ti13	 0.217673	 0.485669	 0.000000 
Sr14	 0.319226	 0.448175	 0.000000 
Ti15	 0.303049	 0.508545	 0.500000 
Sr16	 0.233849	 0.425298	 0.500000 
Ti17	 0.185320	 0.606409	 0.000000 
Sr18	 0.286873	 0.568915	 0.000000 
Ti19	 0.270697	 0.629286	 0.500000 
Sr20	 0.201497	 0.546039	 0.500000 
Ti21	 0.152968	 0.727150	 0.000000 
Sr22	 0.254521	 0.689656	 0.000000 
Ti23	 0.238345	 0.750027	 0.500000 
Sr24	 0.169144	 0.666780	 0.500000 
Ti25	 0.120616	 0.847891	 0.000000 
Sr26	 0.222168	 0.810397	 0.000000 
Ti27	 0.205992	 0.870767	 0.500000 
Sr28	 0.136792	 0.787520	 0.500000 
Ti29	 0.347082	 0.002706	 0.000000 
Sr30	 0.189816	 0.931138	 0.000000 
Ti31	 0.432459	 0.025582	 0.500000 
Sr32	 0.104439	 0.908261	 0.500000 
Ti33	 0.485483	 0.169199	 0.000000 
Sr34	 0.587036	 0.131706	 0.000000 
Ti35	 0.570860	 0.192076	 0.500000 
Sr36	 0.501659	 0.108829	 0.500000 
Ti37	 0.453131	 0.289940	 0.000000 
Sr38	 0.554683	 0.252446	 0.000000 
Ti39	 0.538507	 0.312817	 0.500000 
Sr40	 0.469307	 0.229570	 0.500000 
Ti41	 0.420778	 0.410681	 0.000000 
Sr42	 0.522331	 0.373187	 0.000000 
Ti43	 0.506155	 0.433558	 0.500000 
Sr44	 0.436954	 0.350311	 0.500000 
Ti45	 0.388426	 0.531422	 0.000000 
Sr46	 0.489979	 0.493928	 0.000000 
Ti47	 0.473802	 0.554298	 0.500000 
Sr48	 0.404602	 0.471051	 0.500000 
Ti49	 0.356074	 0.652162	 0.000000 
Sr50	 0.457626	 0.614669	 0.000000 
Ti51	 0.441450	 0.675039	 0.500000 
Sr52	 0.372250	 0.591792	 0.500000 
Ti53	 0.323721	 0.772903	 0.000000 
Sr54	 0.425274	 0.735409	 0.000000 
Ti55	 0.409098	 0.795780	 0.500000 
Sr56	 0.339897	 0.712533	 0.500000 
Ti57	 0.291369	 0.893644	 0.000000 
Sr58	 0.392922	 0.856150	 0.000000 
Ti59	 0.376745	 0.916520	 0.500000 
Sr60	 0.307545	 0.833274	 0.500000 
Ti61	 0.517835	 0.048459	 0.000000 
Sr62	 0.360569	 0.976891	 0.000000 
Ti63	 0.603212	 0.071335	 0.500000 
Sr64	 0.275193	 0.954014	 0.500000 
Ti65	 0.656236	 0.214953	 0.000000 
Sr66	 0.757789	 0.177459	 0.000000 
Ti67	 0.741613	 0.237829	 0.500000 
Sr68	 0.672412	 0.154582	 0.500000 
Ti69	 0.623884	 0.335693	 0.000000 
Sr70	 0.725437	 0.298200	 0.000000 
Ti71	 0.709260	 0.358570	 0.500000 
Sr72	 0.640060	 0.275323	 0.500000 
Ti73	 0.591531	 0.456434	 0.000000 
Sr74	 0.693084	 0.418940	 0.000000 
Ti75	 0.676908	 0.479311	 0.500000 
Sr76	 0.607708	 0.396064	 0.500000 
Ti77	 0.559179	 0.577175	 0.000000 
Sr78	 0.660732	 0.539681	 0.000000 
Ti79	 0.644556	 0.600051	 0.500000 
Sr80	 0.575355	 0.516804	 0.500000 
Ti81	 0.526827	 0.697916	 0.000000 
Sr82	 0.628379	 0.660422	 0.000000 
Ti83	 0.612203	 0.720792	 0.500000 
Sr84	 0.543003	 0.637545	 0.500000 
Ti85	 0.494474	 0.818656	 0.000000 
Sr86	 0.596027	 0.781163	 0.000000 
Ti87	 0.579851	 0.841533	 0.500000 
Sr88	 0.510651	 0.758286	 0.500000 
Ti89	 0.462122	 0.939397	 0.000000 
Sr90	 0.563675	 0.901903	 0.000000 
Ti91	 0.547499	 0.962274	 0.500000 
Sr92	 0.478298	 0.879027	 0.500000 
Ti93	 0.688589	 0.094212	 0.000000 
Ti94	 0.773965	 0.117089	 0.500000 
Sr95	 0.445946	 0.999767	 0.500000 
Ti96	 0.826989	 0.260706	 0.000000 
Sr97	 0.928542	 0.223212	 0.000000 
Ti98	 0.912366	 0.283582	 0.500000 
Sr99	 0.843166	 0.200335	 0.500000 
Ti100	 0.794637	 0.381447	 0.000000 
Sr101	 0.896190	 0.343953	 0.000000 
Ti102	 0.880014	 0.404323	 0.500000 
Sr103	 0.810813	 0.321076	 0.500000 
Ti104	 0.762285	 0.502187	 0.000000 
Sr105	 0.863837	 0.464694	 0.000000 
Ti106	 0.847661	 0.525064	 0.500000 
Sr107	 0.778461	 0.441817	 0.500000 
Ti108	 0.729932	 0.622928	 0.000000 
Sr109	 0.831485	 0.585434	 0.000000 
Ti110	 0.815309	 0.645805	 0.500000 
Sr111	 0.746108	 0.562558	 0.500000 
Ti112	 0.697580	 0.743669	 0.000000 
Sr113	 0.799133	 0.706175	 0.000000 
Ti114	 0.782956	 0.766545	 0.500000 
Sr115	 0.713756	 0.683298	 0.500000 
Ti116	 0.665227	 0.864409	 0.000000 
Sr117	 0.766780	 0.826916	 0.000000 
Ti118	 0.750604	 0.887286	 0.500000 
Sr119	 0.681404	 0.804039	 0.500000 
Ti120	 0.632875	 0.985150	 0.000000 
Sr121	 0.734428	 0.947656	 0.000000 
Sr122	 0.649051	 0.924780	 0.500000 
Ti123	 0.859342	 0.139965	 0.000000 
Ti124	 0.944718	 0.162842	 0.500000 
Ti125	 0.997743	 0.306459	 0.000000 
Sr126	 0.245529	 0.040199	 0.000000 
Ti127	 0.229353	 0.100570	 0.500000 
Ti128	 0.965390	 0.427200	 0.000000 
Sr129	 0.213177	 0.160940	 0.000000 
Ti130	 0.197001	 0.221310	 0.500000 
Sr131	 0.981566	 0.366829	 0.500000 
Ti132	 0.933038	 0.547940	 0.000000 
Sr133	 0.180825	 0.281681	 0.000000 
Ti134	 0.164649	 0.342051	 0.500000 
Sr135	 0.949214	 0.487570	 0.500000 
Ti136	 0.900685	 0.668681	 0.000000 
Sr137	 0.148472	 0.402422	 0.000000 
Ti138	 0.132296	 0.462792	 0.500000 
Sr139	 0.916862	 0.608311	 0.500000 
Ti140	 0.868333	 0.789422	 0.000000 
Sr141	 0.116120	 0.523162	 0.000000 
Ti142	 0.099944	 0.583533	 0.500000 
Sr143	 0.884509	 0.729052	 0.500000 
Ti144	 0.835981	 0.910163	 0.000000 
Sr145	 0.083768	 0.643903	 0.000000 
Ti146	 0.067591	 0.704273	 0.500000 
Sr147	 0.852157	 0.849792	 0.500000 
Sr148	 0.051415	 0.764644	 0.000000 
Ti149	 0.035239	 0.825014	 0.500000 
Sr150	 0.819804	 0.970533	 0.500000 
Sr151	 0.019063	 0.885384	 0.000000 
#                 ---end-of-data-block---
