data_Pt structure along [001] nx 5 ny 8 nz 1
_cell_length_a               31.240000
_cell_length_b               31.240000
_cell_length_c               5.543717
_cell_angle_alpha          90.000000
_cell_angle_beta           90.000000
_cell_angle_gamma          90.000000
_symmetry_cell_setting          Triclinic
_symmetry_space_group_name_H-M 'P 1' 
loop_
_atom_site_label
_atom_site_fract_x
_atom_site_fract_y
_atom_site_fract_z
Ti1	 0.174326	 0.040130	 0.000000 
Sr2	 0.275878	 0.002636	 0.000000 
Ti3	 0.259702	 0.063006	 0.500000 
Ti4	 0.141973	 0.160870	 0.000000 
Sr5	 0.243526	 0.123377	 0.000000 
Ti6	 0.227350	 0.183747	 0.500000 
Sr7	 0.158149	 0.100500	 0.500000 
Ti8	 0.109621	 0.281611	 0.000000 
Sr9	 0.211174	 0.244117	 0.000000 
Ti10	 0.194997	 0.304488	 0.500000 
Sr11	 0.125797	 0.221241	 0.500000 
Ti12	 0.077268	 0.402352	 0.000000 
Sr13	 0.178821	 0.364858	 0.000000 
Ti14	 0.162645	 0.425228	 0.500000 
Sr15	 0.093445	 0.341981	 0.500000 
Ti16	 0.044916	 0.523093	 0.000000 
Sr17	 0.146469	 0.485599	 0.000000 
Ti18	 0.130293	 0.545969	 0.500000 
Sr19	 0.061092	 0.462722	 0.500000 
Ti20	 0.012564	 0.643833	 0.000000 
Sr21	 0.114116	 0.606340	 0.000000 
Ti22	 0.097940	 0.666710	 0.500000 
Sr23	 0.028740	 0.583463	 0.500000 
Sr24	 0.081764	 0.727080	 0.000000 
Ti25	 0.065588	 0.787451	 0.500000 
Sr26	 0.049412	 0.847821	 0.000000 
Ti27	 0.345079	 0.085883	 0.000000 
Sr28	 0.446632	 0.048389	 0.000000 
Ti29	 0.430455	 0.108759	 0.500000 
Sr30	 0.361255	 0.025512	 0.500000 
Ti31	 0.312726	 0.206624	 0.000000 
Sr32	 0.414279	 0.169130	 0.000000 
Ti33	 0.398103	 0.229500	 0.500000 
Sr34	 0.328903	 0.146253	 0.500000 
Ti35	 0.280374	 0.327364	 0.000000 
Sr36	 0.381927	 0.289871	 0.000000 
Ti37	 0.365751	 0.350241	 0.500000 
Sr38	 0.296550	 0.266994	 0.500000 
Ti39	 0.248022	 0.448105	 0.000000 
Sr40	 0.349574	 0.410611	 0.000000 
Ti41	 0.333398	 0.470982	 0.500000 
Sr42	 0.264198	 0.387735	 0.500000 
Ti43	 0.215669	 0.568846	 0.000000 
Sr44	 0.317222	 0.531352	 0.000000 
Ti45	 0.301046	 0.591722	 0.500000 
Sr46	 0.231845	 0.508475	 0.500000 
Ti47	 0.183317	 0.689586	 0.000000 
Sr48	 0.284870	 0.652093	 0.000000 
Ti49	 0.268693	 0.712463	 0.500000 
Sr50	 0.199493	 0.629216	 0.500000 
Ti51	 0.150965	 0.810327	 0.000000 
Sr52	 0.252517	 0.772833	 0.000000 
Ti53	 0.236341	 0.833204	 0.500000 
Sr54	 0.167141	 0.749957	 0.500000 
Sr55	 0.220165	 0.893574	 0.000000 
Sr56	 0.134788	 0.870698	 0.500000 
Ti57	 0.515832	 0.131636	 0.000000 
Sr58	 0.617385	 0.094142	 0.000000 
Ti59	 0.601209	 0.154513	 0.500000 
Sr60	 0.532008	 0.071266	 0.500000 
Ti61	 0.483480	 0.252377	 0.000000 
Sr62	 0.585032	 0.214883	 0.000000 
Ti63	 0.568856	 0.275253	 0.500000 
Sr64	 0.499656	 0.192006	 0.500000 
Ti65	 0.451127	 0.373117	 0.000000 
Sr66	 0.552680	 0.335624	 0.000000 
Ti67	 0.536504	 0.395994	 0.500000 
Sr68	 0.467303	 0.312747	 0.500000 
Ti69	 0.418775	 0.493858	 0.000000 
Sr70	 0.520328	 0.456364	 0.000000 
Ti71	 0.504151	 0.516735	 0.500000 
Sr72	 0.434951	 0.433488	 0.500000 
Ti73	 0.386422	 0.614599	 0.000000 
Sr74	 0.487975	 0.577105	 0.000000 
Ti75	 0.471799	 0.637476	 0.500000 
Sr76	 0.402599	 0.554229	 0.500000 
Ti77	 0.354070	 0.735340	 0.000000 
Sr78	 0.455623	 0.697846	 0.000000 
Ti79	 0.439447	 0.758216	 0.500000 
Sr80	 0.370246	 0.674969	 0.500000 
Ti81	 0.321718	 0.856080	 0.000000 
Sr82	 0.423270	 0.818587	 0.000000 
Ti83	 0.407094	 0.878957	 0.500000 
Sr84	 0.337894	 0.795710	 0.500000 
Ti85	 0.548184	 0.010895	 0.000000 
Sr86	 0.390918	 0.939327	 0.000000 
Ti87	 0.633561	 0.033772	 0.500000 
Sr88	 0.305541	 0.916451	 0.500000 
Ti89	 0.686585	 0.177389	 0.000000 
Sr90	 0.788138	 0.139895	 0.000000 
Ti91	 0.771962	 0.200266	 0.500000 
Sr92	 0.702761	 0.117019	 0.500000 
Ti93	 0.654233	 0.298130	 0.000000 
Sr94	 0.755786	 0.260636	 0.000000 
Ti95	 0.739609	 0.321007	 0.500000 
Sr96	 0.670409	 0.237760	 0.500000 
Ti97	 0.621880	 0.418871	 0.000000 
Sr98	 0.723433	 0.381377	 0.000000 
Ti99	 0.707257	 0.441747	 0.500000 
Sr100	 0.638057	 0.358500	 0.500000 
Ti101	 0.589528	 0.539611	 0.000000 
Sr102	 0.691081	 0.502118	 0.000000 
Ti103	 0.674905	 0.562488	 0.500000 
Sr104	 0.605704	 0.479241	 0.500000 
Ti105	 0.557176	 0.660352	 0.000000 
Sr106	 0.658728	 0.622858	 0.000000 
Ti107	 0.642552	 0.683229	 0.500000 
Sr108	 0.573352	 0.599982	 0.500000 
Ti109	 0.524823	 0.781093	 0.000000 
Sr110	 0.626376	 0.743599	 0.000000 
Ti111	 0.610200	 0.803969	 0.500000 
Sr112	 0.540999	 0.720722	 0.500000 
Ti113	 0.492471	 0.901834	 0.000000 
Sr114	 0.594024	 0.864340	 0.000000 
Ti115	 0.577847	 0.924710	 0.500000 
Sr116	 0.508647	 0.841463	 0.500000 
Ti117	 0.718938	 0.056648	 0.000000 
Sr118	 0.561671	 0.985081	 0.000000 
Ti119	 0.804314	 0.079525	 0.500000 
Sr120	 0.476295	 0.962204	 0.500000 
Ti121	 0.857338	 0.223142	 0.000000 
Sr122	 0.958891	 0.185649	 0.000000 
Ti123	 0.942715	 0.246019	 0.500000 
Sr124	 0.873515	 0.162772	 0.500000 
Ti125	 0.824986	 0.343883	 0.000000 
Sr126	 0.926539	 0.306389	 0.000000 
Ti127	 0.910363	 0.366760	 0.500000 
Sr128	 0.841162	 0.283513	 0.500000 
Ti129	 0.792634	 0.464624	 0.000000 
Sr130	 0.894186	 0.427130	 0.000000 
Ti131	 0.878010	 0.487500	 0.500000 
Sr132	 0.808810	 0.404253	 0.500000 
Ti133	 0.760281	 0.585365	 0.000000 
Sr134	 0.861834	 0.547871	 0.000000 
Ti135	 0.845658	 0.608241	 0.500000 
Sr136	 0.776457	 0.524994	 0.500000 
Ti137	 0.727929	 0.706105	 0.000000 
Sr138	 0.829482	 0.668612	 0.000000 
Ti139	 0.813305	 0.728982	 0.500000 
Sr140	 0.744105	 0.645735	 0.500000 
Ti141	 0.695576	 0.826846	 0.000000 
Sr142	 0.797129	 0.789352	 0.000000 
Ti143	 0.780953	 0.849723	 0.500000 
Sr144	 0.711753	 0.766476	 0.500000 
Ti145	 0.663224	 0.947587	 0.000000 
Sr146	 0.764777	 0.910093	 0.000000 
Ti147	 0.748601	 0.970463	 0.500000 
Sr148	 0.679400	 0.887216	 0.500000 
Ti149	 0.889691	 0.102402	 0.000000 
Ti150	 0.975067	 0.125278	 0.500000 
#                 ---end-of-data-block---
