data_Pt structure along [001] nx 5 ny 8 nz 1
_cell_length_a               31.240000
_cell_length_b               31.240000
_cell_length_c               5.543717
_cell_angle_alpha          90.000000
_cell_angle_beta           90.000000
_cell_angle_gamma          90.000000
_symmetry_cell_setting          Triclinic
_symmetry_space_group_name_H-M 'P 1' 
loop_
_atom_site_label
_atom_site_fract_x
_atom_site_fract_y
_atom_site_fract_z
Ti1	 0.306822	 0.111831	 0.000000 
Sr2	 0.408375	 0.074337	 0.000000 
Ti3	 0.392198	 0.134707	 0.500000 
Sr4	 0.322998	 0.051460	 0.500000 
Ti5	 0.274469	 0.232571	 0.000000 
Sr6	 0.376022	 0.195077	 0.000000 
Ti7	 0.359846	 0.255448	 0.500000 
Sr8	 0.290646	 0.172201	 0.500000 
Ti9	 0.242117	 0.353312	 0.000000 
Sr10	 0.343670	 0.315818	 0.000000 
Ti11	 0.327494	 0.376189	 0.500000 
Sr12	 0.258293	 0.292942	 0.500000 
Ti13	 0.209765	 0.474053	 0.000000 
Sr14	 0.311317	 0.436559	 0.000000 
Ti15	 0.295141	 0.496929	 0.500000 
Sr16	 0.225941	 0.413682	 0.500000 
Ti17	 0.177412	 0.594793	 0.000000 
Sr18	 0.278965	 0.557300	 0.000000 
Ti19	 0.262789	 0.617670	 0.500000 
Sr20	 0.193588	 0.534423	 0.500000 
Ti21	 0.145060	 0.715534	 0.000000 
Sr22	 0.246613	 0.678040	 0.000000 
Ti23	 0.230436	 0.738411	 0.500000 
Sr24	 0.161236	 0.655164	 0.500000 
Ti25	 0.112708	 0.836275	 0.000000 
Sr26	 0.214260	 0.798781	 0.000000 
Ti27	 0.198084	 0.859151	 0.500000 
Sr28	 0.128884	 0.775905	 0.500000 
Sr29	 0.181908	 0.919522	 0.000000 
Ti30	 0.424551	 0.013966	 0.500000 
Sr31	 0.096531	 0.896645	 0.500000 
Ti32	 0.477575	 0.157584	 0.000000 
Sr33	 0.579128	 0.120090	 0.000000 
Ti34	 0.562952	 0.180460	 0.500000 
Sr35	 0.493751	 0.097213	 0.500000 
Ti36	 0.445223	 0.278324	 0.000000 
Sr37	 0.546775	 0.240831	 0.000000 
Ti38	 0.530599	 0.301201	 0.500000 
Sr39	 0.461399	 0.217954	 0.500000 
Ti40	 0.412870	 0.399065	 0.000000 
Sr41	 0.514423	 0.361571	 0.000000 
Ti42	 0.498247	 0.421942	 0.500000 
Sr43	 0.429046	 0.338695	 0.500000 
Ti44	 0.380518	 0.519806	 0.000000 
Sr45	 0.482071	 0.482312	 0.000000 
Ti46	 0.465894	 0.542682	 0.500000 
Sr47	 0.396694	 0.459436	 0.500000 
Ti48	 0.348165	 0.640547	 0.000000 
Sr49	 0.449718	 0.603053	 0.000000 
Ti50	 0.433542	 0.663423	 0.500000 
Sr51	 0.364342	 0.580176	 0.500000 
Ti52	 0.315813	 0.761287	 0.000000 
Sr53	 0.417366	 0.723794	 0.000000 
Ti54	 0.401190	 0.784164	 0.500000 
Sr55	 0.331989	 0.700917	 0.500000 
Ti56	 0.283461	 0.882028	 0.000000 
Sr57	 0.385013	 0.844534	 0.000000 
Ti58	 0.368837	 0.904905	 0.500000 
Sr59	 0.299637	 0.821658	 0.500000 
Ti60	 0.509927	 0.036843	 0.000000 
Sr61	 0.352661	 0.965275	 0.000000 
Ti62	 0.595304	 0.059720	 0.500000 
Sr63	 0.267285	 0.942398	 0.500000 
Ti64	 0.648328	 0.203337	 0.000000 
Sr65	 0.749881	 0.165843	 0.000000 
Ti66	 0.733705	 0.226213	 0.500000 
Sr67	 0.664504	 0.142967	 0.500000 
Ti68	 0.615976	 0.324078	 0.000000 
Sr69	 0.717529	 0.286584	 0.000000 
Ti70	 0.701352	 0.346954	 0.500000 
Sr71	 0.632152	 0.263707	 0.500000 
Ti72	 0.583623	 0.444818	 0.000000 
Sr73	 0.685176	 0.407325	 0.000000 
Ti74	 0.669000	 0.467695	 0.500000 
Sr75	 0.599800	 0.384448	 0.500000 
Ti76	 0.551271	 0.565559	 0.000000 
Sr77	 0.652824	 0.528065	 0.000000 
Ti78	 0.636648	 0.588436	 0.500000 
Sr79	 0.567447	 0.505189	 0.500000 
Ti80	 0.518919	 0.686300	 0.000000 
Sr81	 0.620471	 0.648806	 0.000000 
Ti82	 0.604295	 0.709176	 0.500000 
Sr83	 0.535095	 0.625929	 0.500000 
Ti84	 0.486566	 0.807041	 0.000000 
Sr85	 0.588119	 0.769547	 0.000000 
Ti86	 0.571943	 0.829917	 0.500000 
Sr87	 0.502742	 0.746670	 0.500000 
Ti88	 0.454214	 0.927781	 0.000000 
Sr89	 0.555767	 0.890287	 0.000000 
Ti90	 0.539590	 0.950658	 0.500000 
Sr91	 0.470390	 0.867411	 0.500000 
Ti92	 0.680681	 0.082596	 0.000000 
Ti93	 0.766057	 0.105473	 0.500000 
Sr94	 0.438038	 0.988152	 0.500000 
Ti95	 0.819081	 0.249090	 0.000000 
Sr96	 0.920634	 0.211596	 0.000000 
Ti97	 0.904458	 0.271967	 0.500000 
Sr98	 0.835258	 0.188720	 0.500000 
Ti99	 0.786729	 0.369831	 0.000000 
Sr100	 0.888282	 0.332337	 0.000000 
Ti101	 0.872106	 0.392707	 0.500000 
Sr102	 0.802905	 0.309460	 0.500000 
Ti103	 0.754377	 0.490572	 0.000000 
Sr104	 0.855929	 0.453078	 0.000000 
Ti105	 0.839753	 0.513448	 0.500000 
Sr106	 0.770553	 0.430201	 0.500000 
Ti107	 0.722024	 0.611312	 0.000000 
Sr108	 0.823577	 0.573818	 0.000000 
Ti109	 0.807401	 0.634189	 0.500000 
Sr110	 0.738200	 0.550942	 0.500000 
Ti111	 0.689672	 0.732053	 0.000000 
Sr112	 0.791225	 0.694559	 0.000000 
Ti113	 0.775048	 0.754930	 0.500000 
Sr114	 0.705848	 0.671683	 0.500000 
Ti115	 0.657319	 0.852794	 0.000000 
Sr116	 0.758872	 0.815300	 0.000000 
Ti117	 0.742696	 0.875670	 0.500000 
Sr118	 0.673496	 0.792423	 0.500000 
Ti119	 0.624967	 0.973534	 0.000000 
Sr120	 0.726520	 0.936041	 0.000000 
Ti121	 0.710344	 0.996411	 0.500000 
Sr122	 0.641143	 0.913164	 0.500000 
Ti123	 0.851434	 0.128349	 0.000000 
Ti124	 0.936810	 0.151226	 0.500000 
Ti125	 0.989835	 0.294843	 0.000000 
Sr126	 0.237621	 0.028584	 0.000000 
Ti127	 0.221445	 0.088954	 0.500000 
Ti128	 0.957482	 0.415584	 0.000000 
Sr129	 0.205269	 0.149324	 0.000000 
Ti130	 0.189093	 0.209695	 0.500000 
Sr131	 0.973658	 0.355214	 0.500000 
Ti132	 0.925130	 0.536325	 0.000000 
Sr133	 0.172917	 0.270065	 0.000000 
Ti134	 0.156740	 0.330435	 0.500000 
Sr135	 0.941306	 0.475954	 0.500000 
Ti136	 0.892777	 0.657065	 0.000000 
Sr137	 0.140564	 0.390806	 0.000000 
Ti138	 0.124388	 0.451176	 0.500000 
Sr139	 0.908954	 0.596695	 0.500000 
Ti140	 0.860425	 0.777806	 0.000000 
Sr141	 0.108212	 0.511546	 0.000000 
Ti142	 0.092036	 0.571917	 0.500000 
Sr143	 0.876601	 0.717436	 0.500000 
Ti144	 0.828073	 0.898547	 0.000000 
Sr145	 0.075860	 0.632287	 0.000000 
Ti146	 0.059683	 0.692658	 0.500000 
Sr147	 0.844249	 0.838176	 0.500000 
Sr148	 0.043507	 0.753028	 0.000000 
Ti149	 0.027331	 0.813398	 0.500000 
Sr150	 0.811896	 0.958917	 0.500000 
Sr151	 0.011155	 0.873769	 0.000000 
#                 ---end-of-data-block---
