data_Pt structure along [001] nx 5 ny 8 nz 1
_cell_length_a               31.240000
_cell_length_b               31.240000
_cell_length_c               5.543717
_cell_angle_alpha          90.000000
_cell_angle_beta           90.000000
_cell_angle_gamma          90.000000
_symmetry_cell_setting          Triclinic
_symmetry_space_group_name_H-M 'P 1' 
loop_
_atom_site_label
_atom_site_fract_x
_atom_site_fract_y
_atom_site_fract_z
Ti1	 0.368030	 0.031361	 0.000000 
Sr2	 0.475826	 0.021429	 0.000000 
Ti3	 0.444576	 0.075555	 0.500000 
Ti4	 0.305530	 0.139614	 0.000000 
Sr5	 0.413326	 0.129682	 0.000000 
Ti6	 0.382076	 0.183808	 0.500000 
Sr7	 0.336780	 0.085488	 0.500000 
Ti8	 0.243030	 0.247867	 0.000000 
Sr9	 0.350826	 0.237935	 0.000000 
Ti10	 0.319576	 0.292062	 0.500000 
Sr11	 0.274280	 0.193741	 0.500000 
Ti12	 0.180530	 0.356121	 0.000000 
Sr13	 0.288326	 0.346188	 0.000000 
Ti14	 0.257076	 0.400315	 0.500000 
Sr15	 0.211780	 0.301994	 0.500000 
Ti16	 0.118030	 0.464374	 0.000000 
Sr17	 0.225826	 0.454441	 0.000000 
Ti18	 0.194576	 0.508568	 0.500000 
Sr19	 0.149280	 0.410247	 0.500000 
Ti20	 0.055530	 0.572627	 0.000000 
Sr21	 0.163326	 0.562695	 0.000000 
Ti22	 0.132076	 0.616821	 0.500000 
Sr23	 0.086780	 0.518500	 0.500000 
Sr24	 0.100826	 0.670948	 0.000000 
Ti25	 0.069576	 0.725074	 0.500000 
Sr26	 0.024280	 0.626754	 0.500000 
Sr27	 0.038326	 0.779201	 0.000000 
Ti28	 0.521123	 0.119749	 0.000000 
Sr29	 0.628919	 0.109817	 0.000000 
Ti30	 0.597669	 0.163944	 0.500000 
Sr31	 0.552373	 0.065623	 0.500000 
Ti32	 0.458623	 0.228003	 0.000000 
Sr33	 0.566419	 0.218070	 0.000000 
Ti34	 0.535169	 0.272197	 0.500000 
Sr35	 0.489873	 0.173876	 0.500000 
Ti36	 0.396123	 0.336256	 0.000000 
Sr37	 0.503919	 0.326323	 0.000000 
Ti38	 0.472669	 0.380450	 0.500000 
Sr39	 0.427373	 0.282129	 0.500000 
Ti40	 0.333623	 0.444509	 0.000000 
Sr41	 0.441419	 0.434577	 0.000000 
Ti42	 0.410169	 0.488703	 0.500000 
Sr43	 0.364873	 0.390382	 0.500000 
Ti44	 0.271123	 0.552762	 0.000000 
Sr45	 0.378919	 0.542830	 0.000000 
Ti46	 0.347669	 0.596956	 0.500000 
Sr47	 0.302373	 0.498636	 0.500000 
Ti48	 0.208623	 0.661015	 0.000000 
Sr49	 0.316419	 0.651083	 0.000000 
Ti50	 0.285169	 0.705210	 0.500000 
Sr51	 0.239873	 0.606889	 0.500000 
Ti52	 0.146123	 0.769269	 0.000000 
Sr53	 0.253919	 0.759336	 0.000000 
Ti54	 0.222669	 0.813463	 0.500000 
Sr55	 0.177373	 0.715142	 0.500000 
Ti56	 0.583623	 0.011496	 0.000000 
Sr57	 0.191419	 0.867589	 0.000000 
Ti58	 0.660169	 0.055690	 0.500000 
Sr59	 0.114873	 0.823395	 0.500000 
Ti60	 0.674216	 0.208138	 0.000000 
Sr61	 0.782013	 0.198205	 0.000000 
Ti62	 0.750763	 0.252332	 0.500000 
Sr63	 0.705466	 0.154011	 0.500000 
Ti64	 0.611716	 0.316391	 0.000000 
Sr65	 0.719513	 0.306459	 0.000000 
Ti66	 0.688263	 0.360585	 0.500000 
Sr67	 0.642966	 0.262264	 0.500000 
Ti68	 0.549216	 0.424644	 0.000000 
Sr69	 0.657013	 0.414712	 0.000000 
Ti70	 0.625763	 0.468838	 0.500000 
Sr71	 0.580466	 0.370518	 0.500000 
Ti72	 0.486716	 0.532897	 0.000000 
Sr73	 0.594513	 0.522965	 0.000000 
Ti74	 0.563263	 0.577092	 0.500000 
Sr75	 0.517966	 0.478771	 0.500000 
Ti76	 0.424216	 0.641151	 0.000000 
Sr77	 0.532013	 0.631218	 0.000000 
Ti78	 0.500763	 0.685345	 0.500000 
Sr79	 0.455466	 0.587024	 0.500000 
Ti80	 0.361716	 0.749404	 0.000000 
Sr81	 0.469513	 0.739471	 0.000000 
Ti82	 0.438263	 0.793598	 0.500000 
Sr83	 0.392966	 0.695277	 0.500000 
Ti84	 0.299216	 0.857657	 0.000000 
Sr85	 0.407013	 0.847724	 0.000000 
Ti86	 0.375763	 0.901851	 0.500000 
Sr87	 0.330466	 0.803530	 0.500000 
Ti88	 0.736716	 0.099885	 0.000000 
Sr89	 0.344513	 0.955978	 0.000000 
Ti90	 0.813263	 0.144079	 0.500000 
Sr91	 0.267966	 0.911783	 0.500000 
Ti92	 0.827309	 0.296526	 0.000000 
Sr93	 0.935106	 0.286594	 0.000000 
Ti94	 0.903856	 0.340720	 0.500000 
Sr95	 0.858559	 0.242400	 0.500000 
Ti96	 0.764809	 0.404779	 0.000000 
Sr97	 0.872606	 0.394847	 0.000000 
Ti98	 0.841356	 0.448974	 0.500000 
Sr99	 0.796059	 0.350653	 0.500000 
Ti100	 0.702309	 0.513033	 0.000000 
Sr101	 0.810106	 0.503100	 0.000000 
Ti102	 0.778856	 0.557227	 0.500000 
Sr103	 0.733559	 0.458906	 0.500000 
Ti104	 0.639809	 0.621286	 0.000000 
Sr105	 0.747606	 0.611353	 0.000000 
Ti106	 0.716356	 0.665480	 0.500000 
Sr107	 0.671059	 0.567159	 0.500000 
Ti108	 0.577309	 0.729539	 0.000000 
Sr109	 0.685106	 0.719606	 0.000000 
Ti110	 0.653856	 0.773733	 0.500000 
Sr111	 0.608559	 0.675412	 0.500000 
Ti112	 0.514809	 0.837792	 0.000000 
Sr113	 0.622606	 0.827860	 0.000000 
Ti114	 0.591356	 0.881986	 0.500000 
Sr115	 0.546059	 0.783665	 0.500000 
Ti116	 0.452309	 0.946045	 0.000000 
Sr117	 0.560106	 0.936113	 0.000000 
Ti118	 0.528856	 0.990239	 0.500000 
Sr119	 0.483559	 0.891919	 0.500000 
Ti120	 0.889809	 0.188273	 0.000000 
Ti121	 0.966356	 0.232467	 0.500000 
Ti122	 0.980402	 0.384915	 0.000000 
Ti123	 0.917902	 0.493168	 0.000000 
Sr124	 0.260233	 0.041294	 0.000000 
Ti125	 0.228983	 0.095420	 0.500000 
Sr126	 0.949152	 0.439041	 0.500000 
Ti127	 0.855402	 0.601421	 0.000000 
Sr128	 0.197733	 0.149547	 0.000000 
Ti129	 0.166483	 0.203673	 0.500000 
Sr130	 0.886652	 0.547294	 0.500000 
Ti131	 0.792902	 0.709674	 0.000000 
Sr132	 0.135233	 0.257800	 0.000000 
Ti133	 0.103983	 0.311926	 0.500000 
Sr134	 0.824152	 0.655547	 0.500000 
Ti135	 0.730402	 0.817927	 0.000000 
Sr136	 0.072733	 0.366053	 0.000000 
Ti137	 0.041483	 0.420180	 0.500000 
Sr138	 0.761652	 0.763801	 0.500000 
Ti139	 0.667902	 0.926180	 0.000000 
Sr140	 0.010233	 0.474306	 0.000000 
Sr141	 0.699152	 0.872054	 0.500000 
Sr142	 0.636652	 0.980307	 0.500000 
#                 ---end-of-data-block---
