data_Pt structure along [001] nx 5 ny 8 nz 1
_cell_length_a               31.240000
_cell_length_b               31.240000
_cell_length_c               5.543717
_cell_angle_alpha          90.000000
_cell_angle_beta           90.000000
_cell_angle_gamma          90.000000
_symmetry_cell_setting          Triclinic
_symmetry_space_group_name_H-M 'P 1' 
loop_
_atom_site_label
_atom_site_fract_x
_atom_site_fract_y
_atom_site_fract_z
Ti1	 0.348587	 0.003897	 0.000000 
Ti2	 0.425133	 0.048091	 0.500000 
Ti3	 0.286087	 0.112150	 0.000000 
Sr4	 0.393883	 0.102218	 0.000000 
Ti5	 0.362633	 0.156344	 0.500000 
Sr6	 0.317337	 0.058024	 0.500000 
Ti7	 0.223587	 0.220403	 0.000000 
Sr8	 0.331383	 0.210471	 0.000000 
Ti9	 0.300133	 0.264598	 0.500000 
Sr10	 0.254837	 0.166277	 0.500000 
Ti11	 0.161087	 0.328657	 0.000000 
Sr12	 0.268883	 0.318724	 0.000000 
Ti13	 0.237633	 0.372851	 0.500000 
Sr14	 0.192337	 0.274530	 0.500000 
Ti15	 0.098587	 0.436910	 0.000000 
Sr16	 0.206383	 0.426977	 0.000000 
Ti17	 0.175133	 0.481104	 0.500000 
Sr18	 0.129837	 0.382783	 0.500000 
Ti19	 0.036087	 0.545163	 0.000000 
Sr20	 0.143883	 0.535231	 0.000000 
Ti21	 0.112633	 0.589357	 0.500000 
Sr22	 0.067337	 0.491036	 0.500000 
Sr23	 0.081383	 0.643484	 0.000000 
Ti24	 0.050133	 0.697610	 0.500000 
Sr25	 0.004837	 0.599290	 0.500000 
Sr26	 0.018883	 0.751737	 0.000000 
Ti27	 0.501680	 0.092285	 0.000000 
Sr28	 0.609477	 0.082353	 0.000000 
Ti29	 0.578227	 0.136480	 0.500000 
Sr30	 0.532930	 0.038159	 0.500000 
Ti31	 0.439180	 0.200539	 0.000000 
Sr32	 0.546977	 0.190606	 0.000000 
Ti33	 0.515727	 0.244733	 0.500000 
Sr34	 0.470430	 0.146412	 0.500000 
Ti35	 0.376680	 0.308792	 0.000000 
Sr36	 0.484477	 0.298859	 0.000000 
Ti37	 0.453227	 0.352986	 0.500000 
Sr38	 0.407930	 0.254665	 0.500000 
Ti39	 0.314180	 0.417045	 0.000000 
Sr40	 0.421977	 0.407113	 0.000000 
Ti41	 0.390727	 0.461239	 0.500000 
Sr42	 0.345430	 0.362918	 0.500000 
Ti43	 0.251680	 0.525298	 0.000000 
Sr44	 0.359477	 0.515366	 0.000000 
Ti45	 0.328227	 0.569492	 0.500000 
Sr46	 0.282930	 0.471172	 0.500000 
Ti47	 0.189180	 0.633551	 0.000000 
Sr48	 0.296977	 0.623619	 0.000000 
Ti49	 0.265727	 0.677745	 0.500000 
Sr50	 0.220430	 0.579425	 0.500000 
Ti51	 0.126680	 0.741804	 0.000000 
Sr52	 0.234477	 0.731872	 0.000000 
Ti53	 0.203227	 0.785999	 0.500000 
Sr54	 0.157930	 0.687678	 0.500000 
Sr55	 0.171977	 0.840125	 0.000000 
Ti56	 0.640727	 0.028226	 0.500000 
Sr57	 0.095430	 0.795931	 0.500000 
Ti58	 0.654773	 0.180674	 0.000000 
Sr59	 0.762570	 0.170741	 0.000000 
Ti60	 0.731320	 0.224868	 0.500000 
Sr61	 0.686023	 0.126547	 0.500000 
Ti62	 0.592273	 0.288927	 0.000000 
Sr63	 0.700070	 0.278995	 0.000000 
Ti64	 0.668820	 0.333121	 0.500000 
Sr65	 0.623523	 0.234800	 0.500000 
Ti66	 0.529773	 0.397180	 0.000000 
Sr67	 0.637570	 0.387248	 0.000000 
Ti68	 0.606320	 0.441374	 0.500000 
Sr69	 0.561023	 0.343054	 0.500000 
Ti70	 0.467273	 0.505433	 0.000000 
Sr71	 0.575070	 0.495501	 0.000000 
Ti72	 0.543820	 0.549627	 0.500000 
Sr73	 0.498523	 0.451307	 0.500000 
Ti74	 0.404773	 0.613686	 0.000000 
Sr75	 0.512570	 0.603754	 0.000000 
Ti76	 0.481320	 0.657881	 0.500000 
Sr77	 0.436023	 0.559560	 0.500000 
Ti78	 0.342273	 0.721940	 0.000000 
Sr79	 0.450070	 0.712007	 0.000000 
Ti80	 0.418820	 0.766134	 0.500000 
Sr81	 0.373523	 0.667813	 0.500000 
Ti82	 0.279773	 0.830193	 0.000000 
Sr83	 0.387570	 0.820260	 0.000000 
Ti84	 0.356320	 0.874387	 0.500000 
Sr85	 0.311023	 0.776066	 0.500000 
Ti86	 0.717273	 0.072421	 0.000000 
Sr87	 0.325070	 0.928514	 0.000000 
Ti88	 0.793820	 0.116615	 0.500000 
Sr89	 0.248523	 0.884319	 0.500000 
Ti90	 0.807866	 0.269062	 0.000000 
Sr91	 0.915663	 0.259130	 0.000000 
Ti92	 0.884413	 0.313256	 0.500000 
Sr93	 0.839116	 0.214936	 0.500000 
Ti94	 0.745366	 0.377315	 0.000000 
Sr95	 0.853163	 0.367383	 0.000000 
Ti96	 0.821913	 0.421509	 0.500000 
Sr97	 0.776616	 0.323189	 0.500000 
Ti98	 0.682866	 0.485568	 0.000000 
Sr99	 0.790663	 0.475636	 0.000000 
Ti100	 0.759413	 0.529763	 0.500000 
Sr101	 0.714116	 0.431442	 0.500000 
Ti102	 0.620366	 0.593822	 0.000000 
Sr103	 0.728163	 0.583889	 0.000000 
Ti104	 0.696913	 0.638016	 0.500000 
Sr105	 0.651616	 0.539695	 0.500000 
Ti106	 0.557866	 0.702075	 0.000000 
Sr107	 0.665663	 0.692142	 0.000000 
Ti108	 0.634413	 0.746269	 0.500000 
Sr109	 0.589116	 0.647948	 0.500000 
Ti110	 0.495366	 0.810328	 0.000000 
Sr111	 0.603163	 0.800396	 0.000000 
Ti112	 0.571913	 0.854522	 0.500000 
Sr113	 0.526616	 0.756201	 0.500000 
Ti114	 0.432866	 0.918581	 0.000000 
Sr115	 0.540663	 0.908649	 0.000000 
Ti116	 0.509413	 0.962775	 0.500000 
Sr117	 0.464116	 0.864455	 0.500000 
Ti118	 0.870366	 0.160809	 0.000000 
Ti119	 0.946913	 0.205003	 0.500000 
Sr120	 0.401616	 0.972708	 0.500000 
Ti121	 0.960959	 0.357450	 0.000000 
Sr122	 0.992209	 0.303324	 0.500000 
Ti123	 0.898459	 0.465704	 0.000000 
Ti124	 0.975006	 0.509898	 0.500000 
Sr125	 0.929709	 0.411577	 0.500000 
Ti126	 0.835959	 0.573957	 0.000000 
Sr127	 0.943756	 0.564024	 0.000000 
Ti128	 0.912506	 0.618151	 0.500000 
Sr129	 0.867209	 0.519830	 0.500000 
Ti130	 0.773459	 0.682210	 0.000000 
Sr131	 0.881256	 0.672278	 0.000000 
Ti132	 0.850006	 0.726404	 0.500000 
Sr133	 0.804709	 0.628083	 0.500000 
Ti134	 0.710959	 0.790463	 0.000000 
Sr135	 0.818756	 0.780531	 0.000000 
Ti136	 0.787506	 0.834657	 0.500000 
Sr137	 0.742209	 0.736337	 0.500000 
Ti138	 0.648459	 0.898716	 0.000000 
Sr139	 0.756256	 0.888784	 0.000000 
Ti140	 0.725006	 0.942911	 0.500000 
Sr141	 0.679709	 0.844590	 0.500000 
Sr142	 0.693756	 0.997037	 0.000000 
Sr143	 0.617209	 0.952843	 0.500000 
#                 ---end-of-data-block---
