data_Pt structure along [001] nx 5 ny 8 nz 1
_cell_length_a               31.240000
_cell_length_b               31.240000
_cell_length_c               5.543717
_cell_angle_alpha          90.000000
_cell_angle_beta           90.000000
_cell_angle_gamma          90.000000
_symmetry_cell_setting          Triclinic
_symmetry_space_group_name_H-M 'P 1' 
loop_
_atom_site_label
_atom_site_fract_x
_atom_site_fract_y
_atom_site_fract_z
Ti1	 0.312850	 0.062631	 0.000000 
Sr2	 0.420646	 0.052699	 0.000000 
Ti3	 0.389396	 0.106825	 0.500000 
Sr4	 0.344100	 0.008505	 0.500000 
Ti5	 0.250350	 0.170884	 0.000000 
Sr6	 0.358146	 0.160952	 0.000000 
Ti7	 0.326896	 0.215079	 0.500000 
Sr8	 0.281600	 0.116758	 0.500000 
Ti9	 0.187850	 0.279138	 0.000000 
Sr10	 0.295646	 0.269205	 0.000000 
Ti11	 0.264396	 0.323332	 0.500000 
Sr12	 0.219100	 0.225011	 0.500000 
Ti13	 0.125350	 0.387391	 0.000000 
Sr14	 0.233146	 0.377458	 0.000000 
Ti15	 0.201896	 0.431585	 0.500000 
Sr16	 0.156600	 0.333264	 0.500000 
Ti17	 0.062850	 0.495644	 0.000000 
Sr18	 0.170646	 0.485711	 0.000000 
Ti19	 0.139396	 0.539838	 0.500000 
Sr20	 0.094100	 0.441517	 0.500000 
Ti21	 0.000350	 0.603897	 0.000000 
Sr22	 0.108146	 0.593965	 0.000000 
Ti23	 0.076896	 0.648091	 0.500000 
Sr24	 0.031600	 0.549770	 0.500000 
Sr25	 0.045646	 0.702218	 0.000000 
Ti26	 0.014396	 0.756344	 0.500000 
Ti27	 0.528443	 0.042766	 0.000000 
Sr28	 0.636239	 0.032834	 0.000000 
Ti29	 0.604989	 0.086961	 0.500000 
Ti30	 0.465943	 0.151020	 0.000000 
Sr31	 0.573739	 0.141087	 0.000000 
Ti32	 0.542489	 0.195214	 0.500000 
Sr33	 0.497193	 0.096893	 0.500000 
Ti34	 0.403443	 0.259273	 0.000000 
Sr35	 0.511239	 0.249340	 0.000000 
Ti36	 0.479989	 0.303467	 0.500000 
Sr37	 0.434693	 0.205146	 0.500000 
Ti38	 0.340943	 0.367526	 0.000000 
Sr39	 0.448739	 0.357593	 0.000000 
Ti40	 0.417489	 0.411720	 0.500000 
Sr41	 0.372193	 0.313399	 0.500000 
Ti42	 0.278443	 0.475779	 0.000000 
Sr43	 0.386239	 0.465847	 0.000000 
Ti44	 0.354989	 0.519973	 0.500000 
Sr45	 0.309693	 0.421652	 0.500000 
Ti46	 0.215943	 0.584032	 0.000000 
Sr47	 0.323739	 0.574100	 0.000000 
Ti48	 0.292489	 0.628226	 0.500000 
Sr49	 0.247193	 0.529906	 0.500000 
Ti50	 0.153443	 0.692285	 0.000000 
Sr51	 0.261239	 0.682353	 0.000000 
Ti52	 0.229989	 0.736480	 0.500000 
Sr53	 0.184693	 0.638159	 0.500000 
Ti54	 0.090943	 0.800539	 0.000000 
Sr55	 0.198739	 0.790606	 0.000000 
Ti56	 0.167489	 0.844733	 0.500000 
Sr57	 0.122193	 0.746412	 0.500000 
Ti58	 0.681536	 0.131155	 0.000000 
Sr59	 0.789332	 0.121222	 0.000000 
Ti60	 0.758082	 0.175349	 0.500000 
Sr61	 0.712786	 0.077028	 0.500000 
Ti62	 0.619036	 0.239408	 0.000000 
Sr63	 0.726832	 0.229475	 0.000000 
Ti64	 0.695582	 0.283602	 0.500000 
Sr65	 0.650286	 0.185281	 0.500000 
Ti66	 0.556536	 0.347661	 0.000000 
Sr67	 0.664332	 0.337729	 0.000000 
Ti68	 0.633082	 0.391855	 0.500000 
Sr69	 0.587786	 0.293534	 0.500000 
Ti70	 0.494036	 0.455914	 0.000000 
Sr71	 0.601832	 0.445982	 0.000000 
Ti72	 0.570582	 0.500108	 0.500000 
Sr73	 0.525286	 0.401788	 0.500000 
Ti74	 0.431536	 0.564167	 0.000000 
Sr75	 0.539332	 0.554235	 0.000000 
Ti76	 0.508082	 0.608362	 0.500000 
Sr77	 0.462786	 0.510041	 0.500000 
Ti78	 0.369036	 0.672421	 0.000000 
Sr79	 0.476832	 0.662488	 0.000000 
Ti80	 0.445582	 0.716615	 0.500000 
Sr81	 0.400286	 0.618294	 0.500000 
Ti82	 0.306536	 0.780674	 0.000000 
Sr83	 0.414332	 0.770741	 0.000000 
Ti84	 0.383082	 0.824868	 0.500000 
Sr85	 0.337786	 0.726547	 0.500000 
Ti86	 0.244036	 0.888927	 0.000000 
Sr87	 0.351832	 0.878995	 0.000000 
Ti88	 0.320582	 0.933121	 0.500000 
Sr89	 0.275286	 0.834800	 0.500000 
Ti90	 0.834629	 0.219543	 0.000000 
Sr91	 0.942425	 0.209611	 0.000000 
Ti92	 0.911175	 0.263737	 0.500000 
Sr93	 0.865879	 0.165416	 0.500000 
Ti94	 0.772129	 0.327796	 0.000000 
Sr95	 0.879925	 0.317864	 0.000000 
Ti96	 0.848675	 0.371990	 0.500000 
Sr97	 0.803379	 0.273670	 0.500000 
Ti98	 0.709629	 0.436049	 0.000000 
Sr99	 0.817425	 0.426117	 0.000000 
Ti100	 0.786175	 0.480244	 0.500000 
Sr101	 0.740879	 0.381923	 0.500000 
Ti102	 0.647129	 0.544303	 0.000000 
Sr103	 0.754925	 0.534370	 0.000000 
Ti104	 0.723675	 0.588497	 0.500000 
Sr105	 0.678379	 0.490176	 0.500000 
Ti106	 0.584629	 0.652556	 0.000000 
Sr107	 0.692425	 0.642623	 0.000000 
Ti108	 0.661175	 0.696750	 0.500000 
Sr109	 0.615879	 0.598429	 0.500000 
Ti110	 0.522129	 0.760809	 0.000000 
Sr111	 0.629925	 0.750877	 0.000000 
Ti112	 0.598675	 0.805003	 0.500000 
Sr113	 0.553379	 0.706682	 0.500000 
Ti114	 0.459629	 0.869062	 0.000000 
Sr115	 0.567425	 0.859130	 0.000000 
Ti116	 0.536175	 0.913256	 0.500000 
Sr117	 0.490879	 0.814936	 0.500000 
Ti118	 0.397129	 0.977315	 0.000000 
Sr119	 0.504925	 0.967383	 0.000000 
Sr120	 0.428379	 0.923189	 0.500000 
Ti121	 0.987722	 0.307931	 0.000000 
Ti122	 0.925222	 0.416185	 0.000000 
Sr123	 0.956472	 0.362058	 0.500000 
Ti124	 0.862722	 0.524438	 0.000000 
Sr125	 0.970519	 0.514505	 0.000000 
Ti126	 0.939269	 0.568632	 0.500000 
Sr127	 0.893972	 0.470311	 0.500000 
Ti128	 0.800222	 0.632691	 0.000000 
Sr129	 0.908019	 0.622759	 0.000000 
Ti130	 0.876769	 0.676885	 0.500000 
Sr131	 0.831472	 0.578564	 0.500000 
Ti132	 0.737722	 0.740944	 0.000000 
Sr133	 0.845519	 0.731012	 0.000000 
Ti134	 0.814269	 0.785138	 0.500000 
Sr135	 0.768972	 0.686818	 0.500000 
Ti136	 0.675222	 0.849197	 0.000000 
Sr137	 0.783019	 0.839265	 0.000000 
Ti138	 0.751769	 0.893391	 0.500000 
Sr139	 0.706472	 0.795071	 0.500000 
Ti140	 0.612722	 0.957450	 0.000000 
Sr141	 0.720519	 0.947518	 0.000000 
Sr142	 0.643972	 0.903324	 0.500000 
#                 ---end-of-data-block---
