data_Pt structure along [001] nx 5 ny 8 nz 1
_cell_length_a               31.240000
_cell_length_b               31.240000
_cell_length_c               5.543717
_cell_angle_alpha          90.000000
_cell_angle_beta           90.000000
_cell_angle_gamma          90.000000
_symmetry_cell_setting          Triclinic
_symmetry_space_group_name_H-M 'P 1' 
loop_
_atom_site_label
_atom_site_fract_x
_atom_site_fract_y
_atom_site_fract_z
Ti1	 0.429061	 0.029894	 0.000000 
Sr2	 0.536858	 0.019962	 0.000000 
Ti3	 0.505608	 0.074089	 0.500000 
Ti4	 0.366561	 0.138148	 0.000000 
Sr5	 0.474358	 0.128215	 0.000000 
Ti6	 0.443108	 0.182342	 0.500000 
Sr7	 0.397811	 0.084021	 0.500000 
Ti8	 0.304061	 0.246401	 0.000000 
Sr9	 0.411858	 0.236468	 0.000000 
Ti10	 0.380608	 0.290595	 0.500000 
Sr11	 0.335311	 0.192274	 0.500000 
Ti12	 0.241561	 0.354654	 0.000000 
Sr13	 0.349358	 0.344722	 0.000000 
Ti14	 0.318108	 0.398848	 0.500000 
Sr15	 0.272811	 0.300527	 0.500000 
Ti16	 0.179061	 0.462907	 0.000000 
Sr17	 0.286858	 0.452975	 0.000000 
Ti18	 0.255608	 0.507101	 0.500000 
Sr19	 0.210311	 0.408781	 0.500000 
Ti20	 0.116561	 0.571160	 0.000000 
Sr21	 0.224358	 0.561228	 0.000000 
Ti22	 0.193108	 0.615355	 0.500000 
Sr23	 0.147811	 0.517034	 0.500000 
Ti24	 0.054061	 0.679414	 0.000000 
Sr25	 0.161858	 0.669481	 0.000000 
Ti26	 0.130608	 0.723608	 0.500000 
Sr27	 0.085311	 0.625287	 0.500000 
Sr28	 0.099358	 0.777734	 0.000000 
Sr29	 0.022811	 0.733540	 0.500000 
Ti30	 0.582154	 0.118283	 0.000000 
Sr31	 0.689951	 0.108350	 0.000000 
Ti32	 0.658701	 0.162477	 0.500000 
Sr33	 0.613404	 0.064156	 0.500000 
Ti34	 0.519654	 0.226536	 0.000000 
Sr35	 0.627451	 0.216604	 0.000000 
Ti36	 0.596201	 0.270730	 0.500000 
Sr37	 0.550904	 0.172409	 0.500000 
Ti38	 0.457154	 0.334789	 0.000000 
Sr39	 0.564951	 0.324857	 0.000000 
Ti40	 0.533701	 0.378983	 0.500000 
Sr41	 0.488404	 0.280663	 0.500000 
Ti42	 0.394654	 0.443042	 0.000000 
Sr43	 0.502451	 0.433110	 0.000000 
Ti44	 0.471201	 0.487237	 0.500000 
Sr45	 0.425904	 0.388916	 0.500000 
Ti46	 0.332154	 0.551296	 0.000000 
Sr47	 0.439951	 0.541363	 0.000000 
Ti48	 0.408701	 0.595490	 0.500000 
Sr49	 0.363404	 0.497169	 0.500000 
Ti50	 0.269654	 0.659549	 0.000000 
Sr51	 0.377451	 0.649616	 0.000000 
Ti52	 0.346201	 0.703743	 0.500000 
Sr53	 0.300904	 0.605422	 0.500000 
Ti54	 0.207154	 0.767802	 0.000000 
Sr55	 0.314951	 0.757869	 0.000000 
Ti56	 0.283701	 0.811996	 0.500000 
Sr57	 0.238404	 0.713675	 0.500000 
Ti58	 0.644654	 0.010030	 0.000000 
Sr59	 0.252451	 0.866123	 0.000000 
Ti60	 0.721201	 0.054224	 0.500000 
Sr61	 0.175904	 0.821928	 0.500000 
Ti62	 0.735248	 0.206671	 0.000000 
Sr63	 0.843044	 0.196739	 0.000000 
Ti64	 0.811794	 0.250865	 0.500000 
Sr65	 0.766498	 0.152545	 0.500000 
Ti66	 0.672748	 0.314924	 0.000000 
Sr67	 0.780544	 0.304992	 0.000000 
Ti68	 0.749294	 0.359119	 0.500000 
Sr69	 0.703998	 0.260798	 0.500000 
Ti70	 0.610248	 0.423178	 0.000000 
Sr71	 0.718044	 0.413245	 0.000000 
Ti72	 0.686794	 0.467372	 0.500000 
Sr73	 0.641498	 0.369051	 0.500000 
Ti74	 0.547748	 0.531431	 0.000000 
Sr75	 0.655544	 0.521498	 0.000000 
Ti76	 0.624294	 0.575625	 0.500000 
Sr77	 0.578998	 0.477304	 0.500000 
Ti78	 0.485248	 0.639684	 0.000000 
Sr79	 0.593044	 0.629751	 0.000000 
Ti80	 0.561794	 0.683878	 0.500000 
Sr81	 0.516498	 0.585557	 0.500000 
Ti82	 0.422748	 0.747937	 0.000000 
Sr83	 0.530544	 0.738005	 0.000000 
Ti84	 0.499294	 0.792131	 0.500000 
Sr85	 0.453998	 0.693810	 0.500000 
Ti86	 0.360248	 0.856190	 0.000000 
Sr87	 0.468044	 0.846258	 0.000000 
Ti88	 0.436794	 0.900384	 0.500000 
Sr89	 0.391498	 0.802064	 0.500000 
Ti90	 0.797748	 0.098418	 0.000000 
Sr91	 0.405544	 0.954511	 0.000000 
Ti92	 0.874294	 0.142612	 0.500000 
Sr93	 0.328998	 0.910317	 0.500000 
Ti94	 0.888341	 0.295060	 0.000000 
Sr95	 0.996137	 0.285127	 0.000000 
Ti96	 0.964887	 0.339254	 0.500000 
Sr97	 0.919591	 0.240933	 0.500000 
Ti98	 0.825841	 0.403313	 0.000000 
Sr99	 0.933637	 0.393380	 0.000000 
Ti100	 0.902387	 0.447507	 0.500000 
Sr101	 0.857091	 0.349186	 0.500000 
Ti102	 0.763341	 0.511566	 0.000000 
Sr103	 0.871137	 0.501633	 0.000000 
Ti104	 0.839887	 0.555760	 0.500000 
Sr105	 0.794591	 0.457439	 0.500000 
Ti106	 0.700841	 0.619819	 0.000000 
Sr107	 0.808637	 0.609887	 0.000000 
Ti108	 0.777387	 0.664013	 0.500000 
Sr109	 0.732091	 0.565692	 0.500000 
Ti110	 0.638341	 0.728072	 0.000000 
Sr111	 0.746137	 0.718140	 0.000000 
Ti112	 0.714887	 0.772266	 0.500000 
Sr113	 0.669591	 0.673946	 0.500000 
Ti114	 0.575841	 0.836325	 0.000000 
Sr115	 0.683637	 0.826393	 0.000000 
Ti116	 0.652387	 0.880520	 0.500000 
Sr117	 0.607091	 0.782199	 0.500000 
Ti118	 0.513341	 0.944579	 0.000000 
Sr119	 0.621137	 0.934646	 0.000000 
Ti120	 0.589887	 0.988773	 0.500000 
Sr121	 0.544591	 0.890452	 0.500000 
Ti122	 0.950841	 0.186806	 0.000000 
Sr123	 0.482091	 0.998705	 0.500000 
Ti124	 0.978934	 0.491701	 0.000000 
Sr125	 0.321265	 0.039827	 0.000000 
Ti126	 0.290015	 0.093953	 0.500000 
Ti127	 0.916434	 0.599954	 0.000000 
Sr128	 0.258765	 0.148080	 0.000000 
Ti129	 0.227515	 0.202207	 0.500000 
Sr130	 0.947684	 0.545828	 0.500000 
Ti131	 0.853934	 0.708207	 0.000000 
Sr132	 0.196265	 0.256333	 0.000000 
Ti133	 0.165015	 0.310460	 0.500000 
Sr134	 0.885184	 0.654081	 0.500000 
Ti135	 0.791434	 0.816461	 0.000000 
Sr136	 0.133765	 0.364586	 0.000000 
Ti137	 0.102515	 0.418713	 0.500000 
Sr138	 0.822684	 0.762334	 0.500000 
Ti139	 0.728934	 0.924714	 0.000000 
Sr140	 0.071265	 0.472840	 0.000000 
Ti141	 0.040015	 0.526966	 0.500000 
Sr142	 0.760184	 0.870587	 0.500000 
Sr143	 0.008765	 0.581093	 0.000000 
Sr144	 0.697684	 0.978840	 0.500000 
#                 ---end-of-data-block---
