data_Pt structure along [001] nx 5 ny 8 nz 1
_cell_length_a               31.240000
_cell_length_b               31.240000
_cell_length_c               5.543717
_cell_angle_alpha          90.000000
_cell_angle_beta           90.000000
_cell_angle_gamma          90.000000
_symmetry_cell_setting          Triclinic
_symmetry_space_group_name_H-M 'P 1' 
loop_
_atom_site_label
_atom_site_fract_x
_atom_site_fract_y
_atom_site_fract_z
Ti1	 0.413673	 0.031243	 0.500000 
Ti2	 0.274627	 0.095302	 0.000000 
Sr3	 0.382423	 0.085370	 0.000000 
Ti4	 0.351173	 0.139496	 0.500000 
Sr5	 0.305877	 0.041176	 0.500000 
Ti6	 0.212127	 0.203555	 0.000000 
Sr7	 0.319923	 0.193623	 0.000000 
Ti8	 0.288673	 0.247750	 0.500000 
Sr9	 0.243377	 0.149429	 0.500000 
Ti10	 0.149627	 0.311809	 0.000000 
Sr11	 0.257423	 0.301876	 0.000000 
Ti12	 0.226173	 0.356003	 0.500000 
Sr13	 0.180877	 0.257682	 0.500000 
Ti14	 0.087127	 0.420062	 0.000000 
Sr15	 0.194923	 0.410129	 0.000000 
Ti16	 0.163673	 0.464256	 0.500000 
Sr17	 0.118377	 0.365935	 0.500000 
Ti18	 0.024627	 0.528315	 0.000000 
Sr19	 0.132423	 0.518382	 0.000000 
Ti20	 0.101173	 0.572509	 0.500000 
Sr21	 0.055877	 0.474188	 0.500000 
Sr22	 0.069923	 0.626636	 0.000000 
Ti23	 0.038673	 0.680762	 0.500000 
Sr24	 0.007423	 0.734889	 0.000000 
Ti25	 0.490220	 0.075437	 0.000000 
Sr26	 0.598017	 0.065505	 0.000000 
Ti27	 0.566767	 0.119632	 0.500000 
Sr28	 0.521470	 0.021311	 0.500000 
Ti29	 0.427720	 0.183691	 0.000000 
Sr30	 0.535517	 0.173758	 0.000000 
Ti31	 0.504267	 0.227885	 0.500000 
Sr32	 0.458970	 0.129564	 0.500000 
Ti33	 0.365220	 0.291944	 0.000000 
Sr34	 0.473017	 0.282011	 0.000000 
Ti35	 0.441767	 0.336138	 0.500000 
Sr36	 0.396470	 0.237817	 0.500000 
Ti37	 0.302720	 0.400197	 0.000000 
Sr38	 0.410517	 0.390264	 0.000000 
Ti39	 0.379267	 0.444391	 0.500000 
Sr40	 0.333970	 0.346070	 0.500000 
Ti41	 0.240220	 0.508450	 0.000000 
Sr42	 0.348017	 0.498518	 0.000000 
Ti43	 0.316767	 0.552644	 0.500000 
Sr44	 0.271470	 0.454323	 0.500000 
Ti45	 0.177720	 0.616703	 0.000000 
Sr46	 0.285517	 0.606771	 0.000000 
Ti47	 0.254267	 0.660897	 0.500000 
Sr48	 0.208970	 0.562577	 0.500000 
Ti49	 0.115220	 0.724956	 0.000000 
Sr50	 0.223017	 0.715024	 0.000000 
Ti51	 0.191767	 0.769151	 0.500000 
Sr52	 0.146470	 0.670830	 0.500000 
Sr53	 0.160517	 0.823277	 0.000000 
Ti54	 0.629267	 0.011378	 0.500000 
Sr55	 0.083970	 0.779083	 0.500000 
Ti56	 0.643313	 0.163826	 0.000000 
Sr57	 0.751110	 0.153893	 0.000000 
Ti58	 0.719860	 0.208020	 0.500000 
Sr59	 0.674563	 0.109699	 0.500000 
Ti60	 0.580813	 0.272079	 0.000000 
Sr61	 0.688610	 0.262146	 0.000000 
Ti62	 0.657360	 0.316273	 0.500000 
Sr63	 0.612063	 0.217952	 0.500000 
Ti64	 0.518313	 0.380332	 0.000000 
Sr65	 0.626110	 0.370400	 0.000000 
Ti66	 0.594860	 0.424526	 0.500000 
Sr67	 0.549563	 0.326205	 0.500000 
Ti68	 0.455813	 0.488585	 0.000000 
Sr69	 0.563610	 0.478653	 0.000000 
Ti70	 0.532360	 0.532779	 0.500000 
Sr71	 0.487063	 0.434459	 0.500000 
Ti72	 0.393313	 0.596838	 0.000000 
Sr73	 0.501110	 0.586906	 0.000000 
Ti74	 0.469860	 0.641033	 0.500000 
Sr75	 0.424563	 0.542712	 0.500000 
Ti76	 0.330813	 0.705092	 0.000000 
Sr77	 0.438610	 0.695159	 0.000000 
Ti78	 0.407360	 0.749286	 0.500000 
Sr79	 0.362063	 0.650965	 0.500000 
Ti80	 0.268313	 0.813345	 0.000000 
Sr81	 0.376110	 0.803412	 0.000000 
Ti82	 0.344860	 0.857539	 0.500000 
Sr83	 0.299563	 0.759218	 0.500000 
Ti84	 0.705813	 0.055573	 0.000000 
Sr85	 0.313610	 0.911666	 0.000000 
Ti86	 0.782360	 0.099767	 0.500000 
Sr87	 0.237063	 0.867471	 0.500000 
Ti88	 0.796406	 0.252214	 0.000000 
Sr89	 0.904203	 0.242282	 0.000000 
Ti90	 0.872953	 0.296408	 0.500000 
Sr91	 0.827656	 0.198087	 0.500000 
Ti92	 0.733906	 0.360467	 0.000000 
Sr93	 0.841703	 0.350535	 0.000000 
Ti94	 0.810453	 0.404661	 0.500000 
Sr95	 0.765156	 0.306341	 0.500000 
Ti96	 0.671406	 0.468720	 0.000000 
Sr97	 0.779203	 0.458788	 0.000000 
Ti98	 0.747953	 0.512915	 0.500000 
Sr99	 0.702656	 0.414594	 0.500000 
Ti100	 0.608906	 0.576974	 0.000000 
Sr101	 0.716703	 0.567041	 0.000000 
Ti102	 0.685453	 0.621168	 0.500000 
Sr103	 0.640156	 0.522847	 0.500000 
Ti104	 0.546406	 0.685227	 0.000000 
Sr105	 0.654203	 0.675294	 0.000000 
Ti106	 0.622953	 0.729421	 0.500000 
Sr107	 0.577656	 0.631100	 0.500000 
Ti108	 0.483906	 0.793480	 0.000000 
Sr109	 0.591703	 0.783548	 0.000000 
Ti110	 0.560453	 0.837674	 0.500000 
Sr111	 0.515156	 0.739353	 0.500000 
Ti112	 0.421406	 0.901733	 0.000000 
Sr113	 0.529203	 0.891801	 0.000000 
Ti114	 0.497953	 0.945927	 0.500000 
Sr115	 0.452656	 0.847607	 0.500000 
Ti116	 0.858906	 0.143961	 0.000000 
Ti117	 0.935453	 0.188155	 0.500000 
Sr118	 0.390156	 0.955860	 0.500000 
Ti119	 0.949499	 0.340602	 0.000000 
Sr120	 0.980749	 0.286476	 0.500000 
Ti121	 0.886999	 0.448856	 0.000000 
Sr122	 0.994796	 0.438923	 0.000000 
Ti123	 0.963546	 0.493050	 0.500000 
Sr124	 0.918249	 0.394729	 0.500000 
Ti125	 0.824499	 0.557109	 0.000000 
Sr126	 0.932296	 0.547176	 0.000000 
Ti127	 0.901046	 0.601303	 0.500000 
Sr128	 0.855749	 0.502982	 0.500000 
Ti129	 0.761999	 0.665362	 0.000000 
Sr130	 0.869796	 0.655430	 0.000000 
Ti131	 0.838546	 0.709556	 0.500000 
Sr132	 0.793249	 0.611235	 0.500000 
Ti133	 0.699499	 0.773615	 0.000000 
Sr134	 0.807296	 0.763683	 0.000000 
Ti135	 0.776046	 0.817809	 0.500000 
Sr136	 0.730749	 0.719489	 0.500000 
Ti137	 0.636999	 0.881868	 0.000000 
Sr138	 0.744796	 0.871936	 0.000000 
Ti139	 0.713546	 0.926062	 0.500000 
Sr140	 0.668249	 0.827742	 0.500000 
Ti141	 0.574499	 0.990121	 0.000000 
Sr142	 0.682296	 0.980189	 0.000000 
Sr143	 0.605749	 0.935995	 0.500000 
#                 ---end-of-data-block---
