data_Pt structure along [001] nx 5 ny 8 nz 1
_cell_length_a               31.240000
_cell_length_b               31.240000
_cell_length_c               5.543717
_cell_angle_alpha          90.000000
_cell_angle_beta           90.000000
_cell_angle_gamma          90.000000
_symmetry_cell_setting          Triclinic
_symmetry_space_group_name_H-M 'P 1' 
loop_
_atom_site_label
_atom_site_fract_x
_atom_site_fract_y
_atom_site_fract_z
Ti1	 0.441457	 0.001352	 0.000000 
Sr2	 0.548151	 0.019658	 0.000000 
Ti3	 0.503957	 0.063852	 0.500000 
Ti4	 0.353068	 0.089741	 0.000000 
Sr5	 0.459763	 0.108047	 0.000000 
Ti6	 0.415568	 0.152241	 0.500000 
Sr7	 0.397263	 0.045547	 0.500000 
Ti8	 0.264680	 0.178129	 0.000000 
Sr9	 0.371374	 0.196435	 0.000000 
Ti10	 0.327180	 0.240629	 0.500000 
Sr11	 0.308874	 0.133935	 0.500000 
Ti12	 0.176292	 0.266518	 0.000000 
Sr13	 0.282986	 0.284823	 0.000000 
Ti14	 0.238792	 0.329018	 0.500000 
Sr15	 0.220486	 0.222323	 0.500000 
Ti16	 0.087903	 0.354906	 0.000000 
Sr17	 0.194597	 0.373212	 0.000000 
Ti18	 0.150403	 0.417406	 0.500000 
Sr19	 0.132097	 0.310712	 0.500000 
Sr20	 0.106209	 0.461600	 0.000000 
Ti21	 0.062015	 0.505794	 0.500000 
Sr22	 0.043709	 0.399100	 0.500000 
Sr23	 0.017821	 0.549988	 0.000000 
Ti24	 0.654845	 0.037964	 0.000000 
Sr25	 0.761539	 0.056270	 0.000000 
Ti26	 0.717345	 0.100464	 0.500000 
Ti27	 0.566457	 0.126352	 0.000000 
Sr28	 0.673151	 0.144658	 0.000000 
Ti29	 0.628957	 0.188852	 0.500000 
Sr30	 0.610651	 0.082158	 0.500000 
Ti31	 0.478068	 0.214741	 0.000000 
Sr32	 0.584763	 0.233047	 0.000000 
Ti33	 0.540568	 0.277241	 0.500000 
Sr34	 0.522263	 0.170547	 0.500000 
Ti35	 0.389680	 0.303129	 0.000000 
Sr36	 0.496374	 0.321435	 0.000000 
Ti37	 0.452180	 0.365629	 0.500000 
Sr38	 0.433874	 0.258935	 0.500000 
Ti39	 0.301292	 0.391518	 0.000000 
Sr40	 0.407986	 0.409823	 0.000000 
Ti41	 0.363792	 0.454018	 0.500000 
Sr42	 0.345486	 0.347323	 0.500000 
Ti43	 0.212903	 0.479906	 0.000000 
Sr44	 0.319597	 0.498212	 0.000000 
Ti45	 0.275403	 0.542406	 0.500000 
Sr46	 0.257097	 0.435712	 0.500000 
Ti47	 0.124515	 0.568294	 0.000000 
Sr48	 0.231209	 0.586600	 0.000000 
Ti49	 0.187015	 0.630794	 0.500000 
Sr50	 0.168709	 0.524100	 0.500000 
Ti51	 0.036127	 0.656683	 0.000000 
Sr52	 0.142821	 0.674988	 0.000000 
Ti53	 0.098627	 0.719183	 0.500000 
Sr54	 0.080321	 0.612488	 0.500000 
Ti55	 0.779845	 0.162964	 0.000000 
Sr56	 0.886539	 0.181270	 0.000000 
Ti57	 0.842345	 0.225464	 0.500000 
Sr58	 0.824039	 0.118770	 0.500000 
Ti59	 0.691457	 0.251352	 0.000000 
Sr60	 0.798151	 0.269658	 0.000000 
Ti61	 0.753957	 0.313852	 0.500000 
Sr62	 0.735651	 0.207158	 0.500000 
Ti63	 0.603068	 0.339741	 0.000000 
Sr64	 0.709763	 0.358047	 0.000000 
Ti65	 0.665568	 0.402241	 0.500000 
Sr66	 0.647263	 0.295547	 0.500000 
Ti67	 0.514680	 0.428129	 0.000000 
Sr68	 0.621374	 0.446435	 0.000000 
Ti69	 0.577180	 0.490629	 0.500000 
Sr70	 0.558874	 0.383935	 0.500000 
Ti71	 0.426292	 0.516518	 0.000000 
Sr72	 0.532986	 0.534823	 0.000000 
Ti73	 0.488792	 0.579018	 0.500000 
Sr74	 0.470486	 0.472323	 0.500000 
Ti75	 0.337903	 0.604906	 0.000000 
Sr76	 0.444597	 0.623212	 0.000000 
Ti77	 0.400403	 0.667406	 0.500000 
Sr78	 0.382097	 0.560712	 0.500000 
Ti79	 0.249515	 0.693294	 0.000000 
Sr80	 0.356209	 0.711600	 0.000000 
Ti81	 0.312015	 0.755794	 0.500000 
Sr82	 0.293709	 0.649100	 0.500000 
Ti83	 0.161127	 0.781683	 0.000000 
Sr84	 0.267821	 0.799988	 0.000000 
Ti85	 0.223627	 0.844183	 0.500000 
Sr86	 0.205321	 0.737488	 0.500000 
Ti87	 0.904845	 0.287964	 0.000000 
Ti88	 0.967345	 0.350464	 0.500000 
Sr89	 0.949039	 0.243770	 0.500000 
Ti90	 0.816457	 0.376352	 0.000000 
Sr91	 0.923151	 0.394658	 0.000000 
Ti92	 0.878957	 0.438852	 0.500000 
Sr93	 0.860651	 0.332158	 0.500000 
Ti94	 0.728068	 0.464741	 0.000000 
Sr95	 0.834763	 0.483047	 0.000000 
Ti96	 0.790568	 0.527241	 0.500000 
Sr97	 0.772263	 0.420547	 0.500000 
Ti98	 0.639680	 0.553129	 0.000000 
Sr99	 0.746374	 0.571435	 0.000000 
Ti100	 0.702180	 0.615629	 0.500000 
Sr101	 0.683874	 0.508935	 0.500000 
Ti102	 0.551292	 0.641518	 0.000000 
Sr103	 0.657986	 0.659823	 0.000000 
Ti104	 0.613792	 0.704018	 0.500000 
Sr105	 0.595486	 0.597323	 0.500000 
Ti106	 0.462903	 0.729906	 0.000000 
Sr107	 0.569597	 0.748212	 0.000000 
Ti108	 0.525403	 0.792406	 0.500000 
Sr109	 0.507097	 0.685712	 0.500000 
Ti110	 0.374515	 0.818294	 0.000000 
Sr111	 0.481209	 0.836600	 0.000000 
Ti112	 0.437015	 0.880794	 0.500000 
Sr113	 0.418709	 0.774100	 0.500000 
Ti114	 0.286127	 0.906683	 0.000000 
Sr115	 0.392821	 0.924988	 0.000000 
Ti116	 0.348627	 0.969183	 0.500000 
Sr117	 0.330321	 0.862488	 0.500000 
Ti118	 0.941457	 0.501352	 0.000000 
Sr119	 0.985651	 0.457158	 0.500000 
Ti120	 0.853068	 0.589741	 0.000000 
Sr121	 0.959763	 0.608047	 0.000000 
Ti122	 0.915568	 0.652241	 0.500000 
Sr123	 0.897263	 0.545547	 0.500000 
Ti124	 0.764680	 0.678129	 0.000000 
Sr125	 0.871374	 0.696435	 0.000000 
Ti126	 0.827180	 0.740629	 0.500000 
Sr127	 0.808874	 0.633935	 0.500000 
Ti128	 0.676292	 0.766518	 0.000000 
Sr129	 0.782986	 0.784823	 0.000000 
Ti130	 0.738792	 0.829018	 0.500000 
Sr131	 0.720486	 0.722323	 0.500000 
Ti132	 0.587903	 0.854906	 0.000000 
Sr133	 0.694597	 0.873212	 0.000000 
Ti134	 0.650403	 0.917406	 0.500000 
Sr135	 0.632097	 0.810712	 0.500000 
Ti136	 0.499515	 0.943294	 0.000000 
Sr137	 0.606209	 0.961600	 0.000000 
Sr138	 0.543709	 0.899100	 0.500000 
Sr139	 0.455321	 0.987488	 0.500000 
#                 ---end-of-data-block---
