data_Pt structure along [001] nx 5 ny 8 nz 1
_cell_length_a               31.240000
_cell_length_b               31.240000
_cell_length_c               5.543717
_cell_angle_alpha          90.000000
_cell_angle_beta           90.000000
_cell_angle_gamma          90.000000
_symmetry_cell_setting          Triclinic
_symmetry_space_group_name_H-M 'P 1' 
loop_
_atom_site_label
_atom_site_fract_x
_atom_site_fract_y
_atom_site_fract_z
Ti1	 0.694583	 0.030858	 0.500000 
Ti2	 0.542135	 0.016811	 0.000000 
Sr3	 0.640456	 0.062108	 0.000000 
Ti4	 0.586329	 0.093358	 0.500000 
Ti5	 0.433882	 0.079311	 0.000000 
Sr6	 0.532203	 0.124608	 0.000000 
Ti7	 0.478076	 0.155858	 0.500000 
Sr8	 0.488009	 0.048061	 0.500000 
Ti9	 0.325629	 0.141811	 0.000000 
Sr10	 0.423950	 0.187108	 0.000000 
Ti11	 0.369823	 0.218358	 0.500000 
Sr12	 0.379756	 0.110561	 0.500000 
Ti13	 0.217376	 0.204311	 0.000000 
Sr14	 0.315697	 0.249608	 0.000000 
Ti15	 0.261570	 0.280858	 0.500000 
Sr16	 0.271502	 0.173061	 0.500000 
Ti17	 0.109123	 0.266811	 0.000000 
Sr18	 0.207443	 0.312108	 0.000000 
Ti19	 0.153317	 0.343358	 0.500000 
Sr20	 0.163249	 0.235561	 0.500000 
Ti21	 0.000869	 0.329311	 0.000000 
Sr22	 0.099190	 0.374608	 0.000000 
Ti23	 0.045064	 0.405858	 0.500000 
Sr24	 0.054996	 0.298061	 0.500000 
Ti25	 0.738777	 0.107404	 0.000000 
Sr26	 0.837098	 0.152701	 0.000000 
Ti27	 0.782971	 0.183951	 0.500000 
Sr28	 0.792903	 0.076154	 0.500000 
Ti29	 0.630524	 0.169904	 0.000000 
Sr30	 0.728844	 0.215201	 0.000000 
Ti31	 0.674718	 0.246451	 0.500000 
Sr32	 0.684650	 0.138654	 0.500000 
Ti33	 0.522270	 0.232404	 0.000000 
Sr34	 0.620591	 0.277701	 0.000000 
Ti35	 0.566465	 0.308951	 0.500000 
Sr36	 0.576397	 0.201154	 0.500000 
Ti37	 0.414017	 0.294904	 0.000000 
Sr38	 0.512338	 0.340201	 0.000000 
Ti39	 0.458211	 0.371451	 0.500000 
Sr40	 0.468144	 0.263654	 0.500000 
Ti41	 0.305764	 0.357404	 0.000000 
Sr42	 0.404085	 0.402701	 0.000000 
Ti43	 0.349958	 0.433951	 0.500000 
Sr44	 0.359891	 0.326154	 0.500000 
Ti45	 0.197511	 0.419904	 0.000000 
Sr46	 0.295832	 0.465201	 0.000000 
Ti47	 0.241705	 0.496451	 0.500000 
Sr48	 0.251638	 0.388654	 0.500000 
Ti49	 0.089258	 0.482404	 0.000000 
Sr50	 0.187579	 0.527701	 0.000000 
Ti51	 0.133452	 0.558951	 0.500000 
Sr52	 0.143384	 0.451154	 0.500000 
Sr53	 0.079325	 0.590201	 0.000000 
Ti54	 0.025199	 0.621451	 0.500000 
Sr55	 0.035131	 0.513654	 0.500000 
Ti56	 0.827165	 0.260497	 0.000000 
Sr57	 0.925486	 0.305794	 0.000000 
Ti58	 0.871359	 0.337044	 0.500000 
Sr59	 0.881292	 0.229247	 0.500000 
Ti60	 0.718912	 0.322997	 0.000000 
Sr61	 0.817233	 0.368294	 0.000000 
Ti62	 0.763106	 0.399544	 0.500000 
Sr63	 0.773039	 0.291747	 0.500000 
Ti64	 0.610659	 0.385497	 0.000000 
Sr65	 0.708980	 0.430794	 0.000000 
Ti66	 0.654853	 0.462044	 0.500000 
Sr67	 0.664785	 0.354247	 0.500000 
Ti68	 0.502406	 0.447997	 0.000000 
Sr69	 0.600726	 0.493294	 0.000000 
Ti70	 0.546600	 0.524544	 0.500000 
Sr71	 0.556532	 0.416747	 0.500000 
Ti72	 0.394152	 0.510497	 0.000000 
Sr73	 0.492473	 0.555794	 0.000000 
Ti74	 0.438347	 0.587044	 0.500000 
Sr75	 0.448279	 0.479247	 0.500000 
Ti76	 0.285899	 0.572997	 0.000000 
Sr77	 0.384220	 0.618294	 0.000000 
Ti78	 0.330093	 0.649544	 0.500000 
Sr79	 0.340026	 0.541747	 0.500000 
Ti80	 0.177646	 0.635497	 0.000000 
Sr81	 0.275967	 0.680794	 0.000000 
Ti82	 0.221840	 0.712044	 0.500000 
Sr83	 0.231773	 0.604247	 0.500000 
Ti84	 0.069393	 0.697997	 0.000000 
Sr85	 0.167714	 0.743294	 0.000000 
Ti86	 0.113587	 0.774544	 0.500000 
Sr87	 0.123520	 0.666747	 0.500000 
Ti88	 0.915554	 0.413590	 0.000000 
Ti89	 0.959748	 0.490137	 0.500000 
Sr90	 0.969680	 0.382340	 0.500000 
Ti91	 0.807300	 0.476090	 0.000000 
Sr92	 0.905621	 0.521387	 0.000000 
Ti93	 0.851495	 0.552637	 0.500000 
Sr94	 0.861427	 0.444840	 0.500000 
Ti95	 0.699047	 0.538590	 0.000000 
Sr96	 0.797368	 0.583887	 0.000000 
Ti97	 0.743241	 0.615137	 0.500000 
Sr98	 0.753174	 0.507340	 0.500000 
Ti99	 0.590794	 0.601090	 0.000000 
Sr100	 0.689115	 0.646387	 0.000000 
Ti101	 0.634988	 0.677637	 0.500000 
Sr102	 0.644921	 0.569840	 0.500000 
Ti103	 0.482541	 0.663590	 0.000000 
Sr104	 0.580862	 0.708887	 0.000000 
Ti105	 0.526735	 0.740137	 0.500000 
Sr106	 0.536667	 0.632340	 0.500000 
Ti107	 0.374288	 0.726090	 0.000000 
Sr108	 0.472608	 0.771387	 0.000000 
Ti109	 0.418482	 0.802637	 0.500000 
Sr110	 0.428414	 0.694840	 0.500000 
Ti111	 0.266034	 0.788590	 0.000000 
Sr112	 0.364355	 0.833887	 0.000000 
Ti113	 0.310229	 0.865137	 0.500000 
Sr114	 0.320161	 0.757340	 0.500000 
Ti115	 0.157781	 0.851090	 0.000000 
Sr116	 0.256102	 0.896387	 0.000000 
Ti117	 0.201975	 0.927637	 0.500000 
Sr118	 0.211908	 0.819840	 0.500000 
Ti119	 0.895689	 0.629183	 0.000000 
Sr120	 0.994009	 0.674480	 0.000000 
Ti121	 0.939883	 0.705730	 0.500000 
Sr122	 0.949815	 0.597933	 0.500000 
Ti123	 0.787436	 0.691683	 0.000000 
Sr124	 0.885756	 0.736980	 0.000000 
Ti125	 0.831630	 0.768230	 0.500000 
Sr126	 0.841562	 0.660433	 0.500000 
Ti127	 0.679182	 0.754183	 0.000000 
Sr128	 0.777503	 0.799480	 0.000000 
Ti129	 0.723377	 0.830730	 0.500000 
Sr130	 0.733309	 0.722933	 0.500000 
Ti131	 0.570929	 0.816683	 0.000000 
Sr132	 0.669250	 0.861980	 0.000000 
Ti133	 0.615123	 0.893230	 0.500000 
Sr134	 0.625056	 0.785433	 0.500000 
Ti135	 0.462676	 0.879183	 0.000000 
Sr136	 0.560997	 0.924480	 0.000000 
Ti137	 0.506870	 0.955730	 0.500000 
Sr138	 0.516803	 0.847933	 0.500000 
Ti139	 0.354423	 0.941683	 0.000000 
Sr140	 0.452744	 0.986980	 0.000000 
Sr141	 0.408549	 0.910433	 0.500000 
Sr142	 0.300296	 0.972933	 0.500000 
#                 ---end-of-data-block---
