data_Pt structure along [001] nx 5 ny 8 nz 1
_cell_length_a               31.240000
_cell_length_b               31.240000
_cell_length_c               5.543717
_cell_angle_alpha          90.000000
_cell_angle_beta           90.000000
_cell_angle_gamma          90.000000
_symmetry_cell_setting          Triclinic
_symmetry_space_group_name_H-M 'P 1' 
loop_
_atom_site_label
_atom_site_fract_x
_atom_site_fract_y
_atom_site_fract_z
Sr1	 0.663679	 0.014394	 0.000000 
Ti2	 0.619485	 0.058588	 0.500000 
Ti3	 0.468597	 0.084476	 0.000000 
Sr4	 0.575291	 0.102782	 0.000000 
Ti5	 0.531097	 0.146976	 0.500000 
Sr6	 0.512791	 0.040282	 0.500000 
Ti7	 0.380208	 0.172865	 0.000000 
Sr8	 0.486902	 0.191171	 0.000000 
Ti9	 0.442708	 0.235365	 0.500000 
Sr10	 0.424402	 0.128671	 0.500000 
Ti11	 0.291820	 0.261253	 0.000000 
Sr12	 0.398514	 0.279559	 0.000000 
Ti13	 0.354320	 0.323753	 0.500000 
Sr14	 0.336014	 0.217059	 0.500000 
Ti15	 0.203431	 0.349642	 0.000000 
Sr16	 0.310126	 0.367947	 0.000000 
Ti17	 0.265931	 0.412142	 0.500000 
Sr18	 0.247626	 0.305447	 0.500000 
Ti19	 0.115043	 0.438030	 0.000000 
Sr20	 0.221737	 0.456336	 0.000000 
Ti21	 0.177543	 0.500530	 0.500000 
Sr22	 0.159237	 0.393836	 0.500000 
Ti23	 0.026655	 0.526418	 0.000000 
Sr24	 0.133349	 0.544724	 0.000000 
Ti25	 0.089155	 0.588918	 0.500000 
Sr26	 0.070849	 0.482224	 0.500000 
Sr27	 0.044961	 0.633112	 0.000000 
Ti28	 0.000766	 0.677307	 0.500000 
Ti29	 0.681985	 0.121088	 0.000000 
Sr30	 0.788679	 0.139394	 0.000000 
Ti31	 0.744485	 0.183588	 0.500000 
Sr32	 0.726179	 0.076894	 0.500000 
Ti33	 0.593597	 0.209476	 0.000000 
Sr34	 0.700291	 0.227782	 0.000000 
Ti35	 0.656097	 0.271976	 0.500000 
Sr36	 0.637791	 0.165282	 0.500000 
Ti37	 0.505208	 0.297865	 0.000000 
Sr38	 0.611902	 0.316171	 0.000000 
Ti39	 0.567708	 0.360365	 0.500000 
Sr40	 0.549402	 0.253671	 0.500000 
Ti41	 0.416820	 0.386253	 0.000000 
Sr42	 0.523514	 0.404559	 0.000000 
Ti43	 0.479320	 0.448753	 0.500000 
Sr44	 0.461014	 0.342059	 0.500000 
Ti45	 0.328431	 0.474642	 0.000000 
Sr46	 0.435126	 0.492947	 0.000000 
Ti47	 0.390931	 0.537142	 0.500000 
Sr48	 0.372626	 0.430447	 0.500000 
Ti49	 0.240043	 0.563030	 0.000000 
Sr50	 0.346737	 0.581336	 0.000000 
Ti51	 0.302543	 0.625530	 0.500000 
Sr52	 0.284237	 0.518836	 0.500000 
Ti53	 0.151655	 0.651418	 0.000000 
Sr54	 0.258349	 0.669724	 0.000000 
Ti55	 0.214155	 0.713918	 0.500000 
Sr56	 0.195849	 0.607224	 0.500000 
Ti57	 0.063266	 0.739807	 0.000000 
Sr58	 0.169961	 0.758112	 0.000000 
Ti59	 0.125766	 0.802307	 0.500000 
Sr60	 0.107461	 0.695612	 0.500000 
Ti61	 0.806985	 0.246088	 0.000000 
Sr62	 0.913679	 0.264394	 0.000000 
Ti63	 0.869485	 0.308588	 0.500000 
Sr64	 0.851179	 0.201894	 0.500000 
Ti65	 0.718597	 0.334476	 0.000000 
Sr66	 0.825291	 0.352782	 0.000000 
Ti67	 0.781097	 0.396976	 0.500000 
Sr68	 0.762791	 0.290282	 0.500000 
Ti69	 0.630208	 0.422865	 0.000000 
Sr70	 0.736902	 0.441171	 0.000000 
Ti71	 0.692708	 0.485365	 0.500000 
Sr72	 0.674402	 0.378671	 0.500000 
Ti73	 0.541820	 0.511253	 0.000000 
Sr74	 0.648514	 0.529559	 0.000000 
Ti75	 0.604320	 0.573753	 0.500000 
Sr76	 0.586014	 0.467059	 0.500000 
Ti77	 0.453431	 0.599642	 0.000000 
Sr78	 0.560126	 0.617947	 0.000000 
Ti79	 0.515931	 0.662142	 0.500000 
Sr80	 0.497626	 0.555447	 0.500000 
Ti81	 0.365043	 0.688030	 0.000000 
Sr82	 0.471737	 0.706336	 0.000000 
Ti83	 0.427543	 0.750530	 0.500000 
Sr84	 0.409237	 0.643836	 0.500000 
Ti85	 0.276655	 0.776418	 0.000000 
Sr86	 0.383349	 0.794724	 0.000000 
Ti87	 0.339155	 0.838918	 0.500000 
Sr88	 0.320849	 0.732224	 0.500000 
Ti89	 0.188266	 0.864807	 0.000000 
Sr90	 0.294961	 0.883112	 0.000000 
Ti91	 0.250766	 0.927307	 0.500000 
Sr92	 0.232461	 0.820612	 0.500000 
Ti93	 0.931985	 0.371088	 0.000000 
Ti94	 0.994485	 0.433588	 0.500000 
Sr95	 0.976179	 0.326894	 0.500000 
Ti96	 0.843597	 0.459476	 0.000000 
Sr97	 0.950291	 0.477782	 0.000000 
Ti98	 0.906097	 0.521976	 0.500000 
Sr99	 0.887791	 0.415282	 0.500000 
Ti100	 0.755208	 0.547865	 0.000000 
Sr101	 0.861902	 0.566171	 0.000000 
Ti102	 0.817708	 0.610365	 0.500000 
Sr103	 0.799402	 0.503671	 0.500000 
Ti104	 0.666820	 0.636253	 0.000000 
Sr105	 0.773514	 0.654559	 0.000000 
Ti106	 0.729320	 0.698753	 0.500000 
Sr107	 0.711014	 0.592059	 0.500000 
Ti108	 0.578431	 0.724642	 0.000000 
Sr109	 0.685126	 0.742947	 0.000000 
Ti110	 0.640931	 0.787142	 0.500000 
Sr111	 0.622626	 0.680447	 0.500000 
Ti112	 0.490043	 0.813030	 0.000000 
Sr113	 0.596737	 0.831336	 0.000000 
Ti114	 0.552543	 0.875530	 0.500000 
Sr115	 0.534237	 0.768836	 0.500000 
Ti116	 0.401655	 0.901418	 0.000000 
Sr117	 0.508349	 0.919724	 0.000000 
Ti118	 0.464155	 0.963918	 0.500000 
Sr119	 0.445849	 0.857224	 0.500000 
Ti120	 0.313266	 0.989807	 0.000000 
Sr121	 0.357461	 0.945612	 0.500000 
Ti122	 0.968597	 0.584476	 0.000000 
Ti123	 0.406097	 0.021976	 0.500000 
Ti124	 0.880208	 0.672865	 0.000000 
Sr125	 0.361902	 0.066171	 0.000000 
Ti126	 0.317708	 0.110365	 0.500000 
Sr127	 0.924402	 0.628671	 0.500000 
Ti128	 0.791820	 0.761253	 0.000000 
Sr129	 0.273514	 0.154559	 0.000000 
Ti130	 0.229320	 0.198753	 0.500000 
Sr131	 0.836014	 0.717059	 0.500000 
Ti132	 0.703431	 0.849642	 0.000000 
Sr133	 0.185126	 0.242947	 0.000000 
Ti134	 0.140931	 0.287142	 0.500000 
Sr135	 0.747626	 0.805447	 0.500000 
Ti136	 0.615043	 0.938030	 0.000000 
Sr137	 0.096737	 0.331336	 0.000000 
Ti138	 0.052543	 0.375530	 0.500000 
Sr139	 0.659237	 0.893836	 0.500000 
Sr140	 0.008349	 0.419724	 0.000000 
Sr141	 0.570849	 0.982224	 0.500000 
#                 ---end-of-data-block---
