data_Pt structure along [001] nx 5 ny 8 nz 1
_cell_length_a               31.240000
_cell_length_b               31.240000
_cell_length_c               5.543717
_cell_angle_alpha          90.000000
_cell_angle_beta           90.000000
_cell_angle_gamma          90.000000
_symmetry_cell_setting          Triclinic
_symmetry_space_group_name_H-M 'P 1' 
loop_
_atom_site_label
_atom_site_fract_x
_atom_site_fract_y
_atom_site_fract_z
Ti1	 0.528535	 0.007690	 0.500000 
Ti2	 0.377647	 0.033579	 0.000000 
Sr3	 0.484341	 0.051884	 0.000000 
Ti4	 0.440147	 0.096079	 0.500000 
Ti5	 0.289259	 0.121967	 0.000000 
Sr6	 0.395953	 0.140273	 0.000000 
Ti7	 0.351759	 0.184467	 0.500000 
Sr8	 0.333453	 0.077773	 0.500000 
Ti9	 0.200870	 0.210355	 0.000000 
Sr10	 0.307564	 0.228661	 0.000000 
Ti11	 0.263370	 0.272855	 0.500000 
Sr12	 0.245064	 0.166161	 0.500000 
Ti13	 0.112482	 0.298744	 0.000000 
Sr14	 0.219176	 0.317049	 0.000000 
Ti15	 0.174982	 0.361244	 0.500000 
Sr16	 0.156676	 0.254549	 0.500000 
Ti17	 0.024094	 0.387132	 0.000000 
Sr18	 0.130788	 0.405438	 0.000000 
Ti19	 0.086594	 0.449632	 0.500000 
Sr20	 0.068288	 0.342938	 0.500000 
Sr21	 0.042399	 0.493826	 0.000000 
Ti22	 0.591035	 0.070190	 0.000000 
Sr23	 0.697730	 0.088496	 0.000000 
Ti24	 0.653535	 0.132690	 0.500000 
Sr25	 0.635230	 0.025996	 0.500000 
Ti26	 0.502647	 0.158579	 0.000000 
Sr27	 0.609341	 0.176884	 0.000000 
Ti28	 0.565147	 0.221079	 0.500000 
Sr29	 0.546841	 0.114384	 0.500000 
Ti30	 0.414259	 0.246967	 0.000000 
Sr31	 0.520953	 0.265273	 0.000000 
Ti32	 0.476759	 0.309467	 0.500000 
Sr33	 0.458453	 0.202773	 0.500000 
Ti34	 0.325870	 0.335355	 0.000000 
Sr35	 0.432564	 0.353661	 0.000000 
Ti36	 0.388370	 0.397855	 0.500000 
Sr37	 0.370064	 0.291161	 0.500000 
Ti38	 0.237482	 0.423744	 0.000000 
Sr39	 0.344176	 0.442049	 0.000000 
Ti40	 0.299982	 0.486244	 0.500000 
Sr41	 0.281676	 0.379549	 0.500000 
Ti42	 0.149094	 0.512132	 0.000000 
Sr43	 0.255788	 0.530438	 0.000000 
Ti44	 0.211594	 0.574632	 0.500000 
Sr45	 0.193288	 0.467938	 0.500000 
Ti46	 0.060705	 0.600520	 0.000000 
Sr47	 0.167399	 0.618826	 0.000000 
Ti48	 0.123205	 0.663020	 0.500000 
Sr49	 0.104899	 0.556326	 0.500000 
Sr50	 0.079011	 0.707214	 0.000000 
Ti51	 0.741924	 0.044302	 0.500000 
Sr52	 0.016511	 0.644714	 0.500000 
Ti53	 0.716035	 0.195190	 0.000000 
Sr54	 0.822730	 0.213496	 0.000000 
Ti55	 0.778535	 0.257690	 0.500000 
Sr56	 0.760230	 0.150996	 0.500000 
Ti57	 0.627647	 0.283579	 0.000000 
Sr58	 0.734341	 0.301884	 0.000000 
Ti59	 0.690147	 0.346079	 0.500000 
Sr60	 0.671841	 0.239384	 0.500000 
Ti61	 0.539259	 0.371967	 0.000000 
Sr62	 0.645953	 0.390273	 0.000000 
Ti63	 0.601759	 0.434467	 0.500000 
Sr64	 0.583453	 0.327773	 0.500000 
Ti65	 0.450870	 0.460355	 0.000000 
Sr66	 0.557564	 0.478661	 0.000000 
Ti67	 0.513370	 0.522855	 0.500000 
Sr68	 0.495064	 0.416161	 0.500000 
Ti69	 0.362482	 0.548744	 0.000000 
Sr70	 0.469176	 0.567049	 0.000000 
Ti71	 0.424982	 0.611244	 0.500000 
Sr72	 0.406676	 0.504549	 0.500000 
Ti73	 0.274094	 0.637132	 0.000000 
Sr74	 0.380788	 0.655438	 0.000000 
Ti75	 0.336594	 0.699632	 0.500000 
Sr76	 0.318288	 0.592938	 0.500000 
Ti77	 0.185705	 0.725520	 0.000000 
Sr78	 0.292399	 0.743826	 0.000000 
Ti79	 0.248205	 0.788020	 0.500000 
Sr80	 0.229899	 0.681326	 0.500000 
Ti81	 0.804424	 0.106802	 0.000000 
Sr82	 0.204011	 0.832214	 0.000000 
Ti83	 0.866924	 0.169302	 0.500000 
Sr84	 0.141511	 0.769714	 0.500000 
Ti85	 0.841035	 0.320190	 0.000000 
Sr86	 0.947730	 0.338496	 0.000000 
Ti87	 0.903535	 0.382690	 0.500000 
Sr88	 0.885230	 0.275996	 0.500000 
Ti89	 0.752647	 0.408579	 0.000000 
Sr90	 0.859341	 0.426884	 0.000000 
Ti91	 0.815147	 0.471079	 0.500000 
Sr92	 0.796841	 0.364384	 0.500000 
Ti93	 0.664259	 0.496967	 0.000000 
Sr94	 0.770953	 0.515273	 0.000000 
Ti95	 0.726759	 0.559467	 0.500000 
Sr96	 0.708453	 0.452773	 0.500000 
Ti97	 0.575870	 0.585355	 0.000000 
Sr98	 0.682564	 0.603661	 0.000000 
Ti99	 0.638370	 0.647855	 0.500000 
Sr100	 0.620064	 0.541161	 0.500000 
Ti101	 0.487482	 0.673744	 0.000000 
Sr102	 0.594176	 0.692049	 0.000000 
Ti103	 0.549982	 0.736244	 0.500000 
Sr104	 0.531676	 0.629549	 0.500000 
Ti105	 0.399094	 0.762132	 0.000000 
Sr106	 0.505788	 0.780438	 0.000000 
Ti107	 0.461594	 0.824632	 0.500000 
Sr108	 0.443288	 0.717938	 0.500000 
Ti109	 0.310705	 0.850520	 0.000000 
Sr110	 0.417399	 0.868826	 0.000000 
Ti111	 0.373205	 0.913020	 0.500000 
Sr112	 0.354899	 0.806326	 0.500000 
Ti113	 0.929424	 0.231802	 0.000000 
Sr114	 0.329011	 0.957214	 0.000000 
Ti115	 0.991924	 0.294302	 0.500000 
Sr116	 0.266511	 0.894714	 0.500000 
Ti117	 0.966035	 0.445190	 0.000000 
Ti118	 0.877647	 0.533579	 0.000000 
Sr119	 0.984341	 0.551884	 0.000000 
Ti120	 0.940147	 0.596079	 0.500000 
Sr121	 0.921841	 0.489384	 0.500000 
Ti122	 0.789259	 0.621967	 0.000000 
Sr123	 0.895953	 0.640273	 0.000000 
Ti124	 0.851759	 0.684467	 0.500000 
Sr125	 0.833453	 0.577773	 0.500000 
Ti126	 0.700870	 0.710355	 0.000000 
Sr127	 0.807564	 0.728661	 0.000000 
Ti128	 0.763370	 0.772855	 0.500000 
Sr129	 0.745064	 0.666161	 0.500000 
Ti130	 0.612482	 0.798744	 0.000000 
Sr131	 0.719176	 0.817049	 0.000000 
Ti132	 0.674982	 0.861244	 0.500000 
Sr133	 0.656676	 0.754549	 0.500000 
Ti134	 0.524094	 0.887132	 0.000000 
Sr135	 0.630788	 0.905438	 0.000000 
Ti136	 0.586594	 0.949632	 0.500000 
Sr137	 0.568288	 0.842938	 0.500000 
Ti138	 0.435705	 0.975520	 0.000000 
Sr139	 0.542399	 0.993826	 0.000000 
Sr140	 0.479899	 0.931326	 0.500000 
#                 ---end-of-data-block---
