data_Pt structure along [001] nx 5 ny 8 nz 1
_cell_length_a               31.240000
_cell_length_b               31.240000
_cell_length_c               5.543717
_cell_angle_alpha          90.000000
_cell_angle_beta           90.000000
_cell_angle_gamma          90.000000
_symmetry_cell_setting          Triclinic
_symmetry_space_group_name_H-M 'P 1' 
loop_
_atom_site_label
_atom_site_fract_x
_atom_site_fract_y
_atom_site_fract_z
Sr1	 0.795723	 0.021057	 0.000000 
Ti2	 0.741597	 0.052307	 0.500000 
Ti3	 0.589149	 0.038260	 0.000000 
Sr4	 0.687470	 0.083557	 0.000000 
Ti5	 0.633344	 0.114807	 0.500000 
Sr6	 0.643276	 0.007010	 0.500000 
Ti7	 0.480896	 0.100760	 0.000000 
Sr8	 0.579217	 0.146057	 0.000000 
Ti9	 0.525090	 0.177307	 0.500000 
Sr10	 0.535023	 0.069510	 0.500000 
Ti11	 0.372643	 0.163260	 0.000000 
Sr12	 0.470964	 0.208557	 0.000000 
Ti13	 0.416837	 0.239807	 0.500000 
Sr14	 0.426770	 0.132010	 0.500000 
Ti15	 0.264390	 0.225760	 0.000000 
Sr16	 0.362711	 0.271057	 0.000000 
Ti17	 0.308584	 0.302307	 0.500000 
Sr18	 0.318516	 0.194510	 0.500000 
Ti19	 0.156137	 0.288260	 0.000000 
Sr20	 0.254457	 0.333557	 0.000000 
Ti21	 0.200331	 0.364807	 0.500000 
Sr22	 0.210263	 0.257010	 0.500000 
Ti23	 0.047883	 0.350760	 0.000000 
Sr24	 0.146204	 0.396057	 0.000000 
Ti25	 0.092078	 0.427307	 0.500000 
Sr26	 0.102010	 0.319510	 0.500000 
Sr27	 0.037951	 0.458557	 0.000000 
Ti28	 0.785791	 0.128853	 0.000000 
Sr29	 0.884112	 0.174150	 0.000000 
Ti30	 0.829985	 0.205400	 0.500000 
Sr31	 0.839917	 0.097603	 0.500000 
Ti32	 0.677538	 0.191353	 0.000000 
Sr33	 0.775858	 0.236650	 0.000000 
Ti34	 0.721732	 0.267900	 0.500000 
Sr35	 0.731664	 0.160103	 0.500000 
Ti36	 0.569285	 0.253853	 0.000000 
Sr37	 0.667605	 0.299150	 0.000000 
Ti38	 0.613479	 0.330400	 0.500000 
Sr39	 0.623411	 0.222603	 0.500000 
Ti40	 0.461031	 0.316353	 0.000000 
Sr41	 0.559352	 0.361650	 0.000000 
Ti42	 0.505226	 0.392900	 0.500000 
Sr43	 0.515158	 0.285103	 0.500000 
Ti44	 0.352778	 0.378853	 0.000000 
Sr45	 0.451099	 0.424150	 0.000000 
Ti46	 0.396972	 0.455400	 0.500000 
Sr47	 0.406905	 0.347603	 0.500000 
Ti48	 0.244525	 0.441353	 0.000000 
Sr49	 0.342846	 0.486650	 0.000000 
Ti50	 0.288719	 0.517900	 0.500000 
Sr51	 0.298652	 0.410103	 0.500000 
Ti52	 0.136272	 0.503853	 0.000000 
Sr53	 0.234593	 0.549150	 0.000000 
Ti54	 0.180466	 0.580400	 0.500000 
Sr55	 0.190398	 0.472603	 0.500000 
Ti56	 0.028019	 0.566353	 0.000000 
Sr57	 0.126339	 0.611650	 0.000000 
Ti58	 0.072213	 0.642900	 0.500000 
Sr59	 0.082145	 0.535103	 0.500000 
Ti60	 0.874179	 0.281946	 0.000000 
Sr61	 0.972500	 0.327243	 0.000000 
Ti62	 0.918373	 0.358493	 0.500000 
Sr63	 0.928306	 0.250696	 0.500000 
Ti64	 0.765926	 0.344446	 0.000000 
Sr65	 0.864247	 0.389743	 0.000000 
Ti66	 0.810120	 0.420993	 0.500000 
Sr67	 0.820053	 0.313196	 0.500000 
Ti68	 0.657673	 0.406946	 0.000000 
Sr69	 0.755994	 0.452243	 0.000000 
Ti70	 0.701867	 0.483493	 0.500000 
Sr71	 0.711799	 0.375696	 0.500000 
Ti72	 0.549420	 0.469446	 0.000000 
Sr73	 0.647740	 0.514743	 0.000000 
Ti74	 0.593614	 0.545993	 0.500000 
Sr75	 0.603546	 0.438196	 0.500000 
Ti76	 0.441166	 0.531946	 0.000000 
Sr77	 0.539487	 0.577243	 0.000000 
Ti78	 0.485361	 0.608493	 0.500000 
Sr79	 0.495293	 0.500696	 0.500000 
Ti80	 0.332913	 0.594446	 0.000000 
Sr81	 0.431234	 0.639743	 0.000000 
Ti82	 0.377107	 0.670993	 0.500000 
Sr83	 0.387040	 0.563196	 0.500000 
Ti84	 0.224660	 0.656946	 0.000000 
Sr85	 0.322981	 0.702243	 0.000000 
Ti86	 0.268854	 0.733493	 0.500000 
Sr87	 0.278787	 0.625696	 0.500000 
Ti88	 0.116407	 0.719446	 0.000000 
Sr89	 0.214728	 0.764743	 0.000000 
Ti90	 0.160601	 0.795993	 0.500000 
Sr91	 0.170534	 0.688196	 0.500000 
Ti92	 0.962568	 0.435039	 0.000000 
Ti93	 0.854314	 0.497539	 0.000000 
Sr94	 0.952635	 0.542836	 0.000000 
Ti95	 0.898509	 0.574086	 0.500000 
Sr96	 0.908441	 0.466289	 0.500000 
Ti97	 0.746061	 0.560039	 0.000000 
Sr98	 0.844382	 0.605336	 0.000000 
Ti99	 0.790255	 0.636586	 0.500000 
Sr100	 0.800188	 0.528789	 0.500000 
Ti101	 0.637808	 0.622539	 0.000000 
Sr102	 0.736129	 0.667836	 0.000000 
Ti103	 0.682002	 0.699086	 0.500000 
Sr104	 0.691935	 0.591289	 0.500000 
Ti105	 0.529555	 0.685039	 0.000000 
Sr106	 0.627876	 0.730336	 0.000000 
Ti107	 0.573749	 0.761586	 0.500000 
Sr108	 0.583681	 0.653789	 0.500000 
Ti109	 0.421302	 0.747539	 0.000000 
Sr110	 0.519622	 0.792836	 0.000000 
Ti111	 0.465496	 0.824086	 0.500000 
Sr112	 0.475428	 0.716289	 0.500000 
Ti113	 0.313048	 0.810039	 0.000000 
Sr114	 0.411369	 0.855336	 0.000000 
Ti115	 0.357243	 0.886586	 0.500000 
Sr116	 0.367175	 0.778789	 0.500000 
Ti117	 0.204795	 0.872539	 0.000000 
Sr118	 0.303116	 0.917836	 0.000000 
Ti119	 0.248989	 0.949086	 0.500000 
Sr120	 0.258922	 0.841289	 0.500000 
Ti121	 0.942703	 0.650632	 0.000000 
Ti122	 0.986897	 0.727179	 0.500000 
Sr123	 0.996829	 0.619382	 0.500000 
Ti124	 0.834450	 0.713132	 0.000000 
Sr125	 0.932770	 0.758429	 0.000000 
Ti126	 0.878644	 0.789679	 0.500000 
Sr127	 0.888576	 0.681882	 0.500000 
Ti128	 0.726196	 0.775632	 0.000000 
Sr129	 0.824517	 0.820929	 0.000000 
Ti130	 0.770391	 0.852179	 0.500000 
Sr131	 0.780323	 0.744382	 0.500000 
Ti132	 0.617943	 0.838132	 0.000000 
Sr133	 0.716264	 0.883429	 0.000000 
Ti134	 0.662137	 0.914679	 0.500000 
Sr135	 0.672070	 0.806882	 0.500000 
Ti136	 0.509690	 0.900632	 0.000000 
Sr137	 0.608011	 0.945929	 0.000000 
Ti138	 0.553884	 0.977179	 0.500000 
Sr139	 0.563817	 0.869382	 0.500000 
Ti140	 0.401437	 0.963132	 0.000000 
Sr141	 0.455563	 0.931882	 0.500000 
Sr142	 0.347310	 0.994382	 0.500000 
#                 ---end-of-data-block---
