data_Pt structure along [001] nx 5 ny 8 nz 1
_cell_length_a               31.240000
_cell_length_b               31.240000
_cell_length_c               5.543717
_cell_angle_alpha          90.000000
_cell_angle_beta           90.000000
_cell_angle_gamma          90.000000
_symmetry_cell_setting          Triclinic
_symmetry_space_group_name_H-M 'P 1' 
loop_
_atom_site_label
_atom_site_fract_x
_atom_site_fract_y
_atom_site_fract_z
Ti1	 0.667643	 0.023924	 0.500000 
Ti2	 0.515196	 0.009878	 0.000000 
Sr3	 0.613516	 0.055174	 0.000000 
Ti4	 0.559390	 0.086424	 0.500000 
Ti5	 0.406942	 0.072378	 0.000000 
Sr6	 0.505263	 0.117674	 0.000000 
Ti7	 0.451137	 0.148924	 0.500000 
Sr8	 0.461069	 0.041128	 0.500000 
Ti9	 0.298689	 0.134878	 0.000000 
Sr10	 0.397010	 0.180174	 0.000000 
Ti11	 0.342883	 0.211424	 0.500000 
Sr12	 0.352816	 0.103628	 0.500000 
Ti13	 0.190436	 0.197378	 0.000000 
Sr14	 0.288757	 0.242674	 0.000000 
Ti15	 0.234630	 0.273924	 0.500000 
Sr16	 0.244563	 0.166128	 0.500000 
Ti17	 0.082183	 0.259878	 0.000000 
Sr18	 0.180504	 0.305174	 0.000000 
Ti19	 0.126377	 0.336424	 0.500000 
Sr20	 0.136310	 0.228628	 0.500000 
Sr21	 0.072251	 0.367674	 0.000000 
Ti22	 0.018124	 0.398924	 0.500000 
Sr23	 0.028056	 0.291128	 0.500000 
Ti24	 0.711837	 0.100471	 0.000000 
Sr25	 0.810158	 0.145767	 0.000000 
Ti26	 0.756031	 0.177017	 0.500000 
Sr27	 0.765964	 0.069221	 0.500000 
Ti28	 0.603584	 0.162971	 0.000000 
Sr29	 0.701905	 0.208267	 0.000000 
Ti30	 0.647778	 0.239517	 0.500000 
Sr31	 0.657711	 0.131721	 0.500000 
Ti32	 0.495331	 0.225471	 0.000000 
Sr33	 0.593652	 0.270767	 0.000000 
Ti34	 0.539525	 0.302017	 0.500000 
Sr35	 0.549457	 0.194221	 0.500000 
Ti36	 0.387078	 0.287971	 0.000000 
Sr37	 0.485398	 0.333267	 0.000000 
Ti38	 0.431272	 0.364517	 0.500000 
Sr39	 0.441204	 0.256721	 0.500000 
Ti40	 0.278824	 0.350471	 0.000000 
Sr41	 0.377145	 0.395767	 0.000000 
Ti42	 0.323019	 0.427017	 0.500000 
Sr43	 0.332951	 0.319221	 0.500000 
Ti44	 0.170571	 0.412971	 0.000000 
Sr45	 0.268892	 0.458267	 0.000000 
Ti46	 0.214765	 0.489517	 0.500000 
Sr47	 0.224698	 0.381721	 0.500000 
Ti48	 0.062318	 0.475471	 0.000000 
Sr49	 0.160639	 0.520767	 0.000000 
Ti50	 0.106512	 0.552017	 0.500000 
Sr51	 0.116445	 0.444221	 0.500000 
Sr52	 0.052386	 0.583267	 0.000000 
Sr53	 0.008192	 0.506721	 0.500000 
Ti54	 0.800226	 0.253564	 0.000000 
Sr55	 0.898546	 0.298860	 0.000000 
Ti56	 0.844420	 0.330110	 0.500000 
Sr57	 0.854352	 0.222314	 0.500000 
Ti58	 0.691972	 0.316064	 0.000000 
Sr59	 0.790293	 0.361360	 0.000000 
Ti60	 0.736167	 0.392610	 0.500000 
Sr61	 0.746099	 0.284814	 0.500000 
Ti62	 0.583719	 0.378564	 0.000000 
Sr63	 0.682040	 0.423860	 0.000000 
Ti64	 0.627913	 0.455110	 0.500000 
Sr65	 0.637846	 0.347314	 0.500000 
Ti66	 0.475466	 0.441064	 0.000000 
Sr67	 0.573787	 0.486360	 0.000000 
Ti68	 0.519660	 0.517610	 0.500000 
Sr69	 0.529593	 0.409814	 0.500000 
Ti70	 0.367213	 0.503564	 0.000000 
Sr71	 0.465534	 0.548860	 0.000000 
Ti72	 0.411407	 0.580110	 0.500000 
Sr73	 0.421339	 0.472314	 0.500000 
Ti74	 0.258960	 0.566064	 0.000000 
Sr75	 0.357280	 0.611360	 0.000000 
Ti76	 0.303154	 0.642610	 0.500000 
Sr77	 0.313086	 0.534814	 0.500000 
Ti78	 0.150706	 0.628564	 0.000000 
Sr79	 0.249027	 0.673860	 0.000000 
Ti80	 0.194901	 0.705110	 0.500000 
Sr81	 0.204833	 0.597314	 0.500000 
Ti82	 0.042453	 0.691064	 0.000000 
Sr83	 0.140774	 0.736360	 0.000000 
Ti84	 0.086647	 0.767610	 0.500000 
Sr85	 0.096580	 0.659814	 0.500000 
Ti86	 0.888614	 0.406657	 0.000000 
Sr87	 0.986935	 0.451954	 0.000000 
Ti88	 0.932808	 0.483204	 0.500000 
Sr89	 0.942740	 0.375407	 0.500000 
Ti90	 0.780361	 0.469157	 0.000000 
Sr91	 0.878681	 0.514454	 0.000000 
Ti92	 0.824555	 0.545704	 0.500000 
Sr93	 0.834487	 0.437907	 0.500000 
Ti94	 0.672108	 0.531657	 0.000000 
Sr95	 0.770428	 0.576954	 0.000000 
Ti96	 0.716302	 0.608204	 0.500000 
Sr97	 0.726234	 0.500407	 0.500000 
Ti98	 0.563854	 0.594157	 0.000000 
Sr99	 0.662175	 0.639454	 0.000000 
Ti100	 0.608049	 0.670704	 0.500000 
Sr101	 0.617981	 0.562907	 0.500000 
Ti102	 0.455601	 0.656657	 0.000000 
Sr103	 0.553922	 0.701954	 0.000000 
Ti104	 0.499795	 0.733204	 0.500000 
Sr105	 0.509728	 0.625407	 0.500000 
Ti106	 0.347348	 0.719157	 0.000000 
Sr107	 0.445669	 0.764454	 0.000000 
Ti108	 0.391542	 0.795704	 0.500000 
Sr109	 0.401475	 0.687907	 0.500000 
Ti110	 0.239095	 0.781657	 0.000000 
Sr111	 0.337416	 0.826954	 0.000000 
Ti112	 0.283289	 0.858204	 0.500000 
Sr113	 0.293221	 0.750407	 0.500000 
Ti114	 0.130842	 0.844157	 0.000000 
Sr115	 0.229162	 0.889454	 0.000000 
Ti116	 0.175036	 0.920704	 0.500000 
Sr117	 0.184968	 0.812907	 0.500000 
Ti118	 0.977002	 0.559750	 0.000000 
Ti119	 0.868749	 0.622250	 0.000000 
Sr120	 0.967070	 0.667547	 0.000000 
Ti121	 0.912943	 0.698797	 0.500000 
Sr122	 0.922876	 0.591000	 0.500000 
Ti123	 0.760496	 0.684750	 0.000000 
Sr124	 0.858817	 0.730047	 0.000000 
Ti125	 0.804690	 0.761297	 0.500000 
Sr126	 0.814622	 0.653500	 0.500000 
Ti127	 0.652243	 0.747250	 0.000000 
Sr128	 0.750563	 0.792547	 0.000000 
Ti129	 0.696437	 0.823797	 0.500000 
Sr130	 0.706369	 0.716000	 0.500000 
Ti131	 0.543990	 0.809750	 0.000000 
Sr132	 0.642310	 0.855047	 0.000000 
Ti133	 0.588184	 0.886297	 0.500000 
Sr134	 0.598116	 0.778500	 0.500000 
Ti135	 0.435736	 0.872250	 0.000000 
Sr136	 0.534057	 0.917547	 0.000000 
Ti137	 0.479931	 0.948797	 0.500000 
Sr138	 0.489863	 0.841000	 0.500000 
Ti139	 0.327483	 0.934750	 0.000000 
Sr140	 0.425804	 0.980047	 0.000000 
Sr141	 0.381610	 0.903500	 0.500000 
Ti142	 0.219230	 0.997250	 0.000000 
Sr143	 0.273357	 0.966000	 0.500000 
#                 ---end-of-data-block---
