data_Pt structure along [001] nx 5 ny 8 nz 1
_cell_length_a               31.240000
_cell_length_b               31.240000
_cell_length_c               5.543717
_cell_angle_alpha          90.000000
_cell_angle_beta           90.000000
_cell_angle_gamma          90.000000
_symmetry_cell_setting          Triclinic
_symmetry_space_group_name_H-M 'P 1' 
loop_
_atom_site_label
_atom_site_fract_x
_atom_site_fract_y
_atom_site_fract_z
Sr1	 0.864234	 0.058229	 0.000000 
Ti2	 0.803864	 0.074406	 0.500000 
Ti3	 0.660246	 0.021381	 0.000000 
Sr4	 0.743493	 0.090582	 0.000000 
Ti5	 0.683123	 0.106758	 0.500000 
Sr6	 0.720617	 0.005205	 0.500000 
Ti7	 0.539506	 0.053734	 0.000000 
Sr8	 0.622753	 0.122934	 0.000000 
Ti9	 0.562382	 0.139110	 0.500000 
Sr10	 0.599876	 0.037558	 0.500000 
Ti11	 0.418765	 0.086086	 0.000000 
Sr12	 0.502012	 0.155287	 0.000000 
Ti13	 0.441641	 0.171463	 0.500000 
Sr14	 0.479135	 0.069910	 0.500000 
Ti15	 0.298024	 0.118438	 0.000000 
Sr16	 0.381271	 0.187639	 0.000000 
Ti17	 0.320901	 0.203815	 0.500000 
Sr18	 0.358394	 0.102262	 0.500000 
Ti19	 0.177283	 0.150791	 0.000000 
Sr20	 0.260530	 0.219991	 0.000000 
Ti21	 0.200160	 0.236167	 0.500000 
Sr22	 0.237654	 0.134615	 0.500000 
Ti23	 0.056543	 0.183143	 0.000000 
Sr24	 0.139790	 0.252344	 0.000000 
Ti25	 0.079419	 0.268520	 0.500000 
Sr26	 0.116913	 0.166967	 0.500000 
Sr27	 0.019049	 0.284696	 0.000000 
Ti28	 0.826740	 0.159782	 0.000000 
Sr29	 0.909987	 0.228983	 0.000000 
Ti30	 0.849617	 0.245159	 0.500000 
Sr31	 0.887111	 0.143606	 0.500000 
Ti32	 0.705999	 0.192135	 0.000000 
Sr33	 0.789246	 0.261335	 0.000000 
Ti34	 0.728876	 0.277511	 0.500000 
Sr35	 0.766370	 0.175958	 0.500000 
Ti36	 0.585259	 0.224487	 0.000000 
Sr37	 0.668506	 0.293687	 0.000000 
Ti38	 0.608135	 0.309863	 0.500000 
Sr39	 0.645629	 0.208311	 0.500000 
Ti40	 0.464518	 0.256839	 0.000000 
Sr41	 0.547765	 0.326040	 0.000000 
Ti42	 0.487395	 0.342216	 0.500000 
Sr43	 0.524888	 0.240663	 0.500000 
Ti44	 0.343777	 0.289192	 0.000000 
Sr45	 0.427024	 0.358392	 0.000000 
Ti46	 0.366654	 0.374568	 0.500000 
Sr47	 0.404148	 0.273015	 0.500000 
Ti48	 0.223037	 0.321544	 0.000000 
Sr49	 0.306284	 0.390744	 0.000000 
Ti50	 0.245913	 0.406921	 0.500000 
Sr51	 0.283407	 0.305368	 0.500000 
Ti52	 0.102296	 0.353896	 0.000000 
Sr53	 0.185543	 0.423097	 0.000000 
Ti54	 0.125172	 0.439273	 0.500000 
Sr55	 0.162666	 0.337720	 0.500000 
Sr56	 0.064802	 0.455449	 0.000000 
Ti57	 0.004432	 0.471625	 0.500000 
Sr58	 0.041925	 0.370073	 0.500000 
Ti59	 0.872493	 0.330535	 0.000000 
Sr60	 0.955740	 0.399736	 0.000000 
Ti61	 0.895370	 0.415912	 0.500000 
Sr62	 0.932864	 0.314359	 0.500000 
Ti63	 0.751753	 0.362888	 0.000000 
Sr64	 0.835000	 0.432088	 0.000000 
Ti65	 0.774629	 0.448264	 0.500000 
Sr66	 0.812123	 0.346712	 0.500000 
Ti67	 0.631012	 0.395240	 0.000000 
Sr68	 0.714259	 0.464440	 0.000000 
Ti69	 0.653888	 0.480617	 0.500000 
Sr70	 0.691382	 0.379064	 0.500000 
Ti71	 0.510271	 0.427592	 0.000000 
Sr72	 0.593518	 0.496793	 0.000000 
Ti73	 0.533148	 0.512969	 0.500000 
Sr74	 0.570642	 0.411416	 0.500000 
Ti75	 0.389530	 0.459945	 0.000000 
Sr76	 0.472777	 0.529145	 0.000000 
Ti77	 0.412407	 0.545321	 0.500000 
Sr78	 0.449901	 0.443769	 0.500000 
Ti79	 0.268790	 0.492297	 0.000000 
Sr80	 0.352037	 0.561498	 0.000000 
Ti81	 0.291666	 0.577674	 0.500000 
Sr82	 0.329160	 0.476121	 0.500000 
Ti83	 0.148049	 0.524650	 0.000000 
Sr84	 0.231296	 0.593850	 0.000000 
Ti85	 0.170926	 0.610026	 0.500000 
Sr86	 0.208419	 0.508473	 0.500000 
Ti87	 0.027308	 0.557002	 0.000000 
Sr88	 0.110555	 0.626202	 0.000000 
Ti89	 0.050185	 0.642379	 0.500000 
Sr90	 0.087679	 0.540826	 0.500000 
Ti91	 0.918247	 0.501288	 0.000000 
Ti92	 0.941123	 0.586665	 0.500000 
Sr93	 0.978617	 0.485112	 0.500000 
Ti94	 0.797506	 0.533641	 0.000000 
Sr95	 0.880753	 0.602841	 0.000000 
Ti96	 0.820382	 0.619017	 0.500000 
Sr97	 0.857876	 0.517465	 0.500000 
Ti98	 0.676765	 0.565993	 0.000000 
Sr99	 0.760012	 0.635194	 0.000000 
Ti100	 0.699642	 0.651370	 0.500000 
Sr101	 0.737135	 0.549817	 0.500000 
Ti102	 0.556024	 0.598346	 0.000000 
Sr103	 0.639271	 0.667546	 0.000000 
Ti104	 0.578901	 0.683722	 0.500000 
Sr105	 0.616395	 0.582169	 0.500000 
Ti106	 0.435284	 0.630698	 0.000000 
Sr107	 0.518531	 0.699898	 0.000000 
Ti108	 0.458160	 0.716075	 0.500000 
Sr109	 0.495654	 0.614522	 0.500000 
Ti110	 0.314543	 0.663050	 0.000000 
Sr111	 0.397790	 0.732251	 0.000000 
Ti112	 0.337419	 0.748427	 0.500000 
Sr113	 0.374913	 0.646874	 0.500000 
Ti114	 0.193802	 0.695403	 0.000000 
Sr115	 0.277049	 0.764603	 0.000000 
Ti116	 0.216679	 0.780779	 0.500000 
Sr117	 0.254173	 0.679227	 0.500000 
Ti118	 0.073061	 0.727755	 0.000000 
Sr119	 0.156308	 0.796956	 0.000000 
Ti120	 0.095938	 0.813132	 0.500000 
Sr121	 0.133432	 0.711579	 0.500000 
Ti122	 0.964000	 0.672042	 0.000000 
Ti123	 0.986876	 0.757418	 0.500000 
Ti124	 0.843259	 0.704394	 0.000000 
Sr125	 0.926506	 0.773594	 0.000000 
Ti126	 0.866136	 0.789771	 0.500000 
Sr127	 0.903629	 0.688218	 0.500000 
Ti128	 0.722518	 0.736746	 0.000000 
Sr129	 0.805765	 0.805947	 0.000000 
Ti130	 0.745395	 0.822123	 0.500000 
Sr131	 0.782889	 0.720570	 0.500000 
Ti132	 0.601778	 0.769099	 0.000000 
Sr133	 0.685024	 0.838299	 0.000000 
Ti134	 0.624654	 0.854475	 0.500000 
Sr135	 0.662148	 0.752923	 0.500000 
Ti136	 0.481037	 0.801451	 0.000000 
Sr137	 0.564284	 0.870652	 0.000000 
Ti138	 0.503913	 0.886828	 0.500000 
Sr139	 0.541407	 0.785275	 0.500000 
Ti140	 0.360296	 0.833804	 0.000000 
Sr141	 0.443543	 0.903004	 0.000000 
Ti142	 0.383173	 0.919180	 0.500000 
Sr143	 0.420666	 0.817627	 0.500000 
Ti144	 0.239555	 0.866156	 0.000000 
Sr145	 0.322802	 0.935356	 0.000000 
Ti146	 0.262432	 0.951533	 0.500000 
Sr147	 0.299926	 0.849980	 0.500000 
Ti148	 0.118815	 0.898508	 0.000000 
Sr149	 0.202062	 0.967709	 0.000000 
Ti150	 0.141691	 0.983885	 0.500000 
Sr151	 0.179185	 0.882332	 0.500000 
#                 ---end-of-data-block---
