data_Pt structure along [001] nx 5 ny 8 nz 1
_cell_length_a               31.240000
_cell_length_b               31.240000
_cell_length_c               5.543717
_cell_angle_alpha          90.000000
_cell_angle_beta           90.000000
_cell_angle_gamma          90.000000
_symmetry_cell_setting          Triclinic
_symmetry_space_group_name_H-M 'P 1' 
loop_
_atom_site_label
_atom_site_fract_x
_atom_site_fract_y
_atom_site_fract_z
Ti1	 0.834182	 0.104206	 0.000000 
Sr2	 0.917429	 0.173406	 0.000000 
Ti3	 0.857058	 0.189582	 0.500000 
Sr4	 0.894552	 0.088030	 0.500000 
Ti5	 0.713441	 0.136558	 0.000000 
Sr6	 0.796688	 0.205759	 0.000000 
Ti7	 0.736318	 0.221935	 0.500000 
Sr8	 0.773811	 0.120382	 0.500000 
Ti9	 0.592700	 0.168911	 0.000000 
Sr10	 0.675947	 0.238111	 0.000000 
Ti11	 0.615577	 0.254287	 0.500000 
Sr12	 0.653071	 0.152734	 0.500000 
Ti13	 0.471960	 0.201263	 0.000000 
Sr14	 0.555207	 0.270463	 0.000000 
Ti15	 0.494836	 0.286640	 0.500000 
Sr16	 0.532330	 0.185087	 0.500000 
Ti17	 0.351219	 0.233615	 0.000000 
Sr18	 0.434466	 0.302816	 0.000000 
Ti19	 0.374095	 0.318992	 0.500000 
Sr20	 0.411589	 0.217439	 0.500000 
Ti21	 0.230478	 0.265968	 0.000000 
Sr22	 0.313725	 0.335168	 0.000000 
Ti23	 0.253355	 0.351344	 0.500000 
Sr24	 0.290849	 0.249792	 0.500000 
Ti25	 0.109737	 0.298320	 0.000000 
Sr26	 0.192984	 0.367521	 0.000000 
Ti27	 0.132614	 0.383697	 0.500000 
Sr28	 0.170108	 0.282144	 0.500000 
Sr29	 0.072244	 0.399873	 0.000000 
Ti30	 0.011873	 0.416049	 0.500000 
Sr31	 0.049367	 0.314496	 0.500000 
Ti32	 0.879935	 0.274959	 0.000000 
Sr33	 0.963182	 0.344159	 0.000000 
Ti34	 0.902812	 0.360336	 0.500000 
Sr35	 0.940305	 0.258783	 0.500000 
Ti36	 0.759194	 0.307311	 0.000000 
Sr37	 0.842441	 0.376512	 0.000000 
Ti38	 0.782071	 0.392688	 0.500000 
Sr39	 0.819565	 0.291135	 0.500000 
Ti40	 0.638454	 0.339664	 0.000000 
Sr41	 0.721700	 0.408864	 0.000000 
Ti42	 0.661330	 0.425040	 0.500000 
Sr43	 0.698824	 0.323488	 0.500000 
Ti44	 0.517713	 0.372016	 0.000000 
Sr45	 0.600960	 0.441217	 0.000000 
Ti46	 0.540589	 0.457393	 0.500000 
Sr47	 0.578083	 0.355840	 0.500000 
Ti48	 0.396972	 0.404369	 0.000000 
Sr49	 0.480219	 0.473569	 0.000000 
Ti50	 0.419849	 0.489745	 0.500000 
Sr51	 0.457342	 0.388192	 0.500000 
Ti52	 0.276231	 0.436721	 0.000000 
Sr53	 0.359478	 0.505921	 0.000000 
Ti54	 0.299108	 0.522098	 0.500000 
Sr55	 0.336602	 0.420545	 0.500000 
Ti56	 0.155491	 0.469073	 0.000000 
Sr57	 0.238738	 0.538274	 0.000000 
Ti58	 0.178367	 0.554450	 0.500000 
Sr59	 0.215861	 0.452897	 0.500000 
Ti60	 0.034750	 0.501426	 0.000000 
Sr61	 0.117997	 0.570626	 0.000000 
Ti62	 0.057626	 0.586802	 0.500000 
Sr63	 0.095120	 0.485250	 0.500000 
Ti64	 0.925688	 0.445712	 0.000000 
Ti65	 0.948565	 0.531089	 0.500000 
Sr66	 0.986059	 0.429536	 0.500000 
Ti67	 0.804947	 0.478065	 0.000000 
Sr68	 0.888194	 0.547265	 0.000000 
Ti69	 0.827824	 0.563441	 0.500000 
Sr70	 0.865318	 0.461888	 0.500000 
Ti71	 0.684207	 0.510417	 0.000000 
Sr72	 0.767454	 0.579617	 0.000000 
Ti73	 0.707083	 0.595794	 0.500000 
Sr74	 0.744577	 0.494241	 0.500000 
Ti75	 0.563466	 0.542769	 0.000000 
Sr76	 0.646713	 0.611970	 0.000000 
Ti77	 0.586343	 0.628146	 0.500000 
Sr78	 0.623836	 0.526593	 0.500000 
Ti79	 0.442725	 0.575122	 0.000000 
Sr80	 0.525972	 0.644322	 0.000000 
Ti81	 0.465602	 0.660498	 0.500000 
Sr82	 0.503096	 0.558946	 0.500000 
Ti83	 0.321985	 0.607474	 0.000000 
Sr84	 0.405231	 0.676675	 0.000000 
Ti85	 0.344861	 0.692851	 0.500000 
Sr86	 0.382355	 0.591298	 0.500000 
Ti87	 0.201244	 0.639827	 0.000000 
Sr88	 0.284491	 0.709027	 0.000000 
Ti89	 0.224120	 0.725203	 0.500000 
Sr90	 0.261614	 0.623650	 0.500000 
Ti91	 0.080503	 0.672179	 0.000000 
Sr92	 0.163750	 0.741379	 0.000000 
Ti93	 0.103380	 0.757556	 0.500000 
Sr94	 0.140873	 0.656003	 0.500000 
Ti95	 0.971441	 0.616465	 0.000000 
Ti96	 0.994318	 0.701842	 0.500000 
Ti97	 0.850701	 0.648818	 0.000000 
Sr98	 0.933948	 0.718018	 0.000000 
Ti99	 0.873577	 0.734194	 0.500000 
Sr100	 0.911071	 0.632642	 0.500000 
Ti101	 0.729960	 0.681170	 0.000000 
Sr102	 0.813207	 0.750371	 0.000000 
Ti103	 0.752836	 0.766547	 0.500000 
Sr104	 0.790330	 0.664994	 0.500000 
Ti105	 0.609219	 0.713523	 0.000000 
Sr106	 0.692466	 0.782723	 0.000000 
Ti107	 0.632096	 0.798899	 0.500000 
Sr108	 0.669590	 0.697346	 0.500000 
Ti109	 0.488478	 0.745875	 0.000000 
Sr110	 0.571725	 0.815075	 0.000000 
Ti111	 0.511355	 0.831252	 0.500000 
Sr112	 0.548849	 0.729699	 0.500000 
Ti113	 0.367738	 0.778227	 0.000000 
Sr114	 0.450985	 0.847428	 0.000000 
Ti115	 0.390614	 0.863604	 0.500000 
Sr116	 0.428108	 0.762051	 0.500000 
Ti117	 0.246997	 0.810580	 0.000000 
Sr118	 0.330244	 0.879780	 0.000000 
Ti119	 0.269874	 0.895956	 0.500000 
Sr120	 0.307367	 0.794404	 0.500000 
Ti121	 0.126256	 0.842932	 0.000000 
Sr122	 0.209503	 0.912132	 0.000000 
Ti123	 0.149133	 0.928309	 0.500000 
Sr124	 0.186627	 0.826756	 0.500000 
Sr125	 0.871676	 0.002653	 0.000000 
Ti126	 0.811305	 0.018829	 0.500000 
Ti127	 0.896454	 0.819571	 0.000000 
Sr128	 0.750935	 0.035006	 0.000000 
Ti129	 0.690564	 0.051182	 0.500000 
Sr130	 0.956824	 0.803395	 0.500000 
Ti131	 0.775713	 0.851923	 0.000000 
Sr132	 0.630194	 0.067358	 0.000000 
Ti133	 0.569824	 0.083534	 0.500000 
Sr134	 0.836083	 0.835747	 0.500000 
Ti135	 0.654972	 0.884276	 0.000000 
Sr136	 0.509453	 0.099710	 0.000000 
Ti137	 0.449083	 0.115886	 0.500000 
Sr138	 0.715343	 0.868100	 0.500000 
Ti139	 0.534232	 0.916628	 0.000000 
Sr140	 0.388713	 0.132063	 0.000000 
Ti141	 0.328342	 0.148239	 0.500000 
Sr142	 0.594602	 0.900452	 0.500000 
Ti143	 0.413491	 0.948981	 0.000000 
Sr144	 0.267972	 0.164415	 0.000000 
Ti145	 0.207602	 0.180591	 0.500000 
Sr146	 0.473861	 0.932804	 0.500000 
Ti147	 0.292750	 0.981333	 0.000000 
Sr148	 0.147231	 0.196767	 0.000000 
Ti149	 0.086861	 0.212944	 0.500000 
Sr150	 0.353121	 0.965157	 0.500000 
Sr151	 0.026490	 0.229120	 0.000000 
Sr152	 0.232380	 0.997509	 0.500000 
#                 ---end-of-data-block---
