data_Pt structure along [001] nx 5 ny 8 nz 1
_cell_length_a               31.240000
_cell_length_b               31.240000
_cell_length_c               5.543717
_cell_angle_alpha          90.000000
_cell_angle_beta           90.000000
_cell_angle_gamma          90.000000
_symmetry_cell_setting          Triclinic
_symmetry_space_group_name_H-M 'P 1' 
loop_
_atom_site_label
_atom_site_fract_x
_atom_site_fract_y
_atom_site_fract_z
Ti1	 0.782210	 0.057039	 0.000000 
Sr2	 0.865457	 0.126239	 0.000000 
Ti3	 0.805086	 0.142415	 0.500000 
Sr4	 0.842580	 0.040863	 0.500000 
Ti5	 0.661469	 0.089391	 0.000000 
Sr6	 0.744716	 0.158592	 0.000000 
Ti7	 0.684346	 0.174768	 0.500000 
Sr8	 0.721839	 0.073215	 0.500000 
Ti9	 0.540728	 0.121744	 0.000000 
Sr10	 0.623975	 0.190944	 0.000000 
Ti11	 0.563605	 0.207120	 0.500000 
Sr12	 0.601099	 0.105567	 0.500000 
Ti13	 0.419988	 0.154096	 0.000000 
Sr14	 0.503234	 0.223296	 0.000000 
Ti15	 0.442864	 0.239473	 0.500000 
Sr16	 0.480358	 0.137920	 0.500000 
Ti17	 0.299247	 0.186448	 0.000000 
Sr18	 0.382494	 0.255649	 0.000000 
Ti19	 0.322123	 0.271825	 0.500000 
Sr20	 0.359617	 0.170272	 0.500000 
Ti21	 0.178506	 0.218801	 0.000000 
Sr22	 0.261753	 0.288001	 0.000000 
Ti23	 0.201383	 0.304177	 0.500000 
Sr24	 0.238876	 0.202625	 0.500000 
Ti25	 0.057765	 0.251153	 0.000000 
Sr26	 0.141012	 0.320353	 0.000000 
Ti27	 0.080642	 0.336530	 0.500000 
Sr28	 0.118136	 0.234977	 0.500000 
Sr29	 0.020272	 0.352706	 0.000000 
Ti30	 0.827963	 0.227792	 0.000000 
Sr31	 0.911210	 0.296992	 0.000000 
Ti32	 0.850839	 0.313169	 0.500000 
Sr33	 0.888333	 0.211616	 0.500000 
Ti34	 0.707222	 0.260144	 0.000000 
Sr35	 0.790469	 0.329345	 0.000000 
Ti36	 0.730099	 0.345521	 0.500000 
Sr37	 0.767593	 0.243968	 0.500000 
Ti38	 0.586481	 0.292497	 0.000000 
Sr39	 0.669728	 0.361697	 0.000000 
Ti40	 0.609358	 0.377873	 0.500000 
Sr41	 0.646852	 0.276321	 0.500000 
Ti42	 0.465741	 0.324849	 0.000000 
Sr43	 0.548988	 0.394050	 0.000000 
Ti44	 0.488617	 0.410226	 0.500000 
Sr45	 0.526111	 0.308673	 0.500000 
Ti46	 0.345000	 0.357202	 0.000000 
Sr47	 0.428247	 0.426402	 0.000000 
Ti48	 0.367877	 0.442578	 0.500000 
Sr49	 0.405370	 0.341025	 0.500000 
Ti50	 0.224259	 0.389554	 0.000000 
Sr51	 0.307506	 0.458754	 0.000000 
Ti52	 0.247136	 0.474930	 0.500000 
Sr53	 0.284630	 0.373378	 0.500000 
Ti54	 0.103519	 0.421906	 0.000000 
Sr55	 0.186765	 0.491107	 0.000000 
Ti56	 0.126395	 0.507283	 0.500000 
Sr57	 0.163889	 0.405730	 0.500000 
Sr58	 0.066025	 0.523459	 0.000000 
Ti59	 0.005654	 0.539635	 0.500000 
Sr60	 0.043148	 0.438082	 0.500000 
Ti61	 0.873716	 0.398545	 0.000000 
Sr62	 0.956963	 0.467746	 0.000000 
Ti63	 0.896593	 0.483922	 0.500000 
Sr64	 0.934086	 0.382369	 0.500000 
Ti65	 0.752975	 0.430898	 0.000000 
Sr66	 0.836222	 0.500098	 0.000000 
Ti67	 0.775852	 0.516274	 0.500000 
Sr68	 0.813346	 0.414721	 0.500000 
Ti69	 0.632235	 0.463250	 0.000000 
Sr70	 0.715482	 0.532450	 0.000000 
Ti71	 0.655111	 0.548627	 0.500000 
Sr72	 0.692605	 0.447074	 0.500000 
Ti73	 0.511494	 0.495602	 0.000000 
Sr74	 0.594741	 0.564803	 0.000000 
Ti75	 0.534370	 0.580979	 0.500000 
Sr76	 0.571864	 0.479426	 0.500000 
Ti77	 0.390753	 0.527955	 0.000000 
Sr78	 0.474000	 0.597155	 0.000000 
Ti79	 0.413630	 0.613331	 0.500000 
Sr80	 0.451124	 0.511778	 0.500000 
Ti81	 0.270012	 0.560307	 0.000000 
Sr82	 0.353259	 0.629507	 0.000000 
Ti83	 0.292889	 0.645684	 0.500000 
Sr84	 0.330383	 0.544131	 0.500000 
Ti85	 0.149272	 0.592659	 0.000000 
Sr86	 0.232519	 0.661860	 0.000000 
Ti87	 0.172148	 0.678036	 0.500000 
Sr88	 0.209642	 0.576483	 0.500000 
Ti89	 0.028531	 0.625012	 0.000000 
Sr90	 0.111778	 0.694212	 0.000000 
Ti91	 0.051408	 0.710388	 0.500000 
Sr92	 0.088901	 0.608836	 0.500000 
Ti93	 0.919469	 0.569298	 0.000000 
Ti94	 0.942346	 0.654675	 0.500000 
Sr95	 0.979840	 0.553122	 0.500000 
Ti96	 0.798729	 0.601651	 0.000000 
Sr97	 0.881975	 0.670851	 0.000000 
Ti98	 0.821605	 0.687027	 0.500000 
Sr99	 0.859099	 0.585475	 0.500000 
Ti100	 0.677988	 0.634003	 0.000000 
Sr101	 0.761235	 0.703203	 0.000000 
Ti102	 0.700864	 0.719380	 0.500000 
Sr103	 0.738358	 0.617827	 0.500000 
Ti104	 0.557247	 0.666355	 0.000000 
Sr105	 0.640494	 0.735556	 0.000000 
Ti106	 0.580124	 0.751732	 0.500000 
Sr107	 0.617617	 0.650179	 0.500000 
Ti108	 0.436506	 0.698708	 0.000000 
Sr109	 0.519753	 0.767908	 0.000000 
Ti110	 0.459383	 0.784084	 0.500000 
Sr111	 0.496877	 0.682532	 0.500000 
Ti112	 0.315766	 0.731060	 0.000000 
Sr113	 0.399013	 0.800261	 0.000000 
Ti114	 0.338642	 0.816437	 0.500000 
Sr115	 0.376136	 0.714884	 0.500000 
Ti116	 0.195025	 0.763413	 0.000000 
Sr117	 0.278272	 0.832613	 0.000000 
Ti118	 0.217901	 0.848789	 0.500000 
Sr119	 0.255395	 0.747236	 0.500000 
Ti120	 0.074284	 0.795765	 0.000000 
Sr121	 0.157531	 0.864965	 0.000000 
Ti122	 0.097161	 0.881142	 0.500000 
Sr123	 0.134655	 0.779589	 0.500000 
Ti124	 0.965222	 0.740052	 0.000000 
Ti125	 0.988099	 0.825428	 0.500000 
Ti126	 0.844482	 0.772404	 0.000000 
Sr127	 0.927729	 0.841604	 0.000000 
Ti128	 0.867358	 0.857780	 0.500000 
Sr129	 0.904852	 0.756228	 0.500000 
Ti130	 0.723741	 0.804756	 0.000000 
Sr131	 0.806988	 0.873957	 0.000000 
Ti132	 0.746618	 0.890133	 0.500000 
Sr133	 0.784111	 0.788580	 0.500000 
Ti134	 0.603000	 0.837109	 0.000000 
Sr135	 0.686247	 0.906309	 0.000000 
Ti136	 0.625877	 0.922485	 0.500000 
Sr137	 0.663371	 0.820932	 0.500000 
Ti138	 0.482260	 0.869461	 0.000000 
Sr139	 0.565506	 0.938661	 0.000000 
Ti140	 0.505136	 0.954838	 0.500000 
Sr141	 0.542630	 0.853285	 0.500000 
Ti142	 0.361519	 0.901813	 0.000000 
Sr143	 0.444766	 0.971014	 0.000000 
Ti144	 0.384395	 0.987190	 0.500000 
Sr145	 0.421889	 0.885637	 0.500000 
Ti146	 0.240778	 0.934166	 0.000000 
Sr147	 0.301148	 0.917990	 0.500000 
Ti148	 0.120037	 0.966518	 0.000000 
Sr149	 0.180408	 0.950342	 0.500000 
#                 ---end-of-data-block---
