data_Pt structure along [001] nx 5 ny 8 nz 1
_cell_length_a               31.240000
_cell_length_b               31.240000
_cell_length_c               5.543717
_cell_angle_alpha          90.000000
_cell_angle_beta           90.000000
_cell_angle_gamma          90.000000
_symmetry_cell_setting          Triclinic
_symmetry_space_group_name_H-M 'P 1' 
loop_
_atom_site_label
_atom_site_fract_x
_atom_site_fract_y
_atom_site_fract_z
Ti1	 0.754009	 0.137730	 0.000000 
Sr2	 0.837256	 0.206931	 0.000000 
Ti3	 0.776885	 0.223107	 0.500000 
Sr4	 0.814379	 0.121554	 0.500000 
Ti5	 0.633268	 0.170083	 0.000000 
Sr6	 0.716515	 0.239283	 0.000000 
Ti7	 0.656144	 0.255459	 0.500000 
Sr8	 0.693638	 0.153907	 0.500000 
Ti9	 0.512527	 0.202435	 0.000000 
Sr10	 0.595774	 0.271635	 0.000000 
Ti11	 0.535404	 0.287812	 0.500000 
Sr12	 0.572897	 0.186259	 0.500000 
Ti13	 0.391786	 0.234787	 0.000000 
Sr14	 0.475033	 0.303988	 0.000000 
Ti15	 0.414663	 0.320164	 0.500000 
Sr16	 0.452157	 0.218611	 0.500000 
Ti17	 0.271046	 0.267140	 0.000000 
Sr18	 0.354293	 0.336340	 0.000000 
Ti19	 0.293922	 0.352516	 0.500000 
Sr20	 0.331416	 0.250964	 0.500000 
Ti21	 0.150305	 0.299492	 0.000000 
Sr22	 0.233552	 0.368693	 0.000000 
Ti23	 0.173182	 0.384869	 0.500000 
Sr24	 0.210675	 0.283316	 0.500000 
Ti25	 0.029564	 0.331845	 0.000000 
Sr26	 0.112811	 0.401045	 0.000000 
Ti27	 0.052441	 0.417221	 0.500000 
Sr28	 0.089935	 0.315668	 0.500000 
Ti29	 0.874749	 0.105378	 0.000000 
Ti30	 0.897626	 0.190755	 0.500000 
Ti31	 0.799762	 0.308483	 0.000000 
Sr32	 0.883009	 0.377684	 0.000000 
Ti33	 0.822638	 0.393860	 0.500000 
Sr34	 0.860132	 0.292307	 0.500000 
Ti35	 0.679021	 0.340836	 0.000000 
Sr36	 0.762268	 0.410036	 0.000000 
Ti37	 0.701898	 0.426212	 0.500000 
Sr38	 0.739391	 0.324660	 0.500000 
Ti39	 0.558280	 0.373188	 0.000000 
Sr40	 0.641527	 0.442389	 0.000000 
Ti41	 0.581157	 0.458565	 0.500000 
Sr42	 0.618651	 0.357012	 0.500000 
Ti43	 0.437540	 0.405541	 0.000000 
Sr44	 0.520787	 0.474741	 0.000000 
Ti45	 0.460416	 0.490917	 0.500000 
Sr46	 0.497910	 0.389364	 0.500000 
Ti47	 0.316799	 0.437893	 0.000000 
Sr48	 0.400046	 0.507093	 0.000000 
Ti49	 0.339675	 0.523270	 0.500000 
Sr50	 0.377169	 0.421717	 0.500000 
Ti51	 0.196058	 0.470245	 0.000000 
Sr52	 0.279305	 0.539446	 0.000000 
Ti53	 0.218935	 0.555622	 0.500000 
Sr54	 0.256428	 0.454069	 0.500000 
Ti55	 0.075317	 0.502598	 0.000000 
Sr56	 0.158564	 0.571798	 0.000000 
Ti57	 0.098194	 0.587974	 0.500000 
Sr58	 0.135688	 0.486422	 0.500000 
Ti59	 0.920502	 0.276131	 0.000000 
Sr60	 0.037824	 0.604151	 0.000000 
Ti61	 0.943379	 0.361508	 0.500000 
Sr62	 0.014947	 0.518774	 0.500000 
Ti63	 0.845515	 0.479237	 0.000000 
Sr64	 0.928762	 0.548437	 0.000000 
Ti65	 0.868391	 0.564613	 0.500000 
Sr66	 0.905885	 0.463060	 0.500000 
Ti67	 0.724774	 0.511589	 0.000000 
Sr68	 0.808021	 0.580789	 0.000000 
Ti69	 0.747651	 0.596966	 0.500000 
Sr70	 0.785145	 0.495413	 0.500000 
Ti71	 0.604033	 0.543941	 0.000000 
Sr72	 0.687280	 0.613142	 0.000000 
Ti73	 0.626910	 0.629318	 0.500000 
Sr74	 0.664404	 0.527765	 0.500000 
Ti75	 0.483293	 0.576294	 0.000000 
Sr76	 0.566540	 0.645494	 0.000000 
Ti77	 0.506169	 0.661670	 0.500000 
Sr78	 0.543663	 0.560118	 0.500000 
Ti79	 0.362552	 0.608646	 0.000000 
Sr80	 0.445799	 0.677847	 0.000000 
Ti81	 0.385429	 0.694023	 0.500000 
Sr82	 0.422922	 0.592470	 0.500000 
Ti83	 0.241811	 0.640999	 0.000000 
Sr84	 0.325058	 0.710199	 0.000000 
Ti85	 0.264688	 0.726375	 0.500000 
Sr86	 0.302182	 0.624822	 0.500000 
Ti87	 0.121071	 0.673351	 0.000000 
Sr88	 0.204317	 0.742551	 0.000000 
Ti89	 0.143947	 0.758728	 0.500000 
Sr90	 0.181441	 0.657175	 0.500000 
Ti91	 0.966256	 0.446884	 0.000000 
Sr92	 0.083577	 0.774904	 0.000000 
Ti93	 0.989132	 0.532261	 0.500000 
Sr94	 0.060700	 0.689527	 0.500000 
Ti95	 0.891268	 0.649990	 0.000000 
Sr96	 0.974515	 0.719190	 0.000000 
Ti97	 0.914145	 0.735366	 0.500000 
Sr98	 0.951638	 0.633814	 0.500000 
Ti99	 0.770527	 0.682342	 0.000000 
Sr100	 0.853774	 0.751543	 0.000000 
Ti101	 0.793404	 0.767719	 0.500000 
Sr102	 0.830898	 0.666166	 0.500000 
Ti103	 0.649787	 0.714695	 0.000000 
Sr104	 0.733034	 0.783895	 0.000000 
Ti105	 0.672663	 0.800071	 0.500000 
Sr106	 0.710157	 0.698518	 0.500000 
Ti107	 0.529046	 0.747047	 0.000000 
Sr108	 0.612293	 0.816247	 0.000000 
Ti109	 0.551922	 0.832424	 0.500000 
Sr110	 0.589416	 0.730871	 0.500000 
Ti111	 0.408305	 0.779399	 0.000000 
Sr112	 0.491552	 0.848600	 0.000000 
Ti113	 0.431182	 0.864776	 0.500000 
Sr114	 0.468676	 0.763223	 0.500000 
Ti115	 0.287564	 0.811752	 0.000000 
Sr116	 0.370811	 0.880952	 0.000000 
Ti117	 0.310441	 0.897128	 0.500000 
Sr118	 0.347935	 0.795576	 0.500000 
Ti119	 0.166824	 0.844104	 0.000000 
Sr120	 0.250071	 0.913305	 0.000000 
Ti121	 0.189700	 0.929481	 0.500000 
Sr122	 0.227194	 0.827928	 0.500000 
Sr123	 0.129330	 0.945657	 0.000000 
Sr124	 0.106453	 0.860280	 0.500000 
Ti125	 0.937021	 0.820743	 0.000000 
Sr126	 0.791502	 0.036178	 0.000000 
Ti127	 0.731132	 0.052354	 0.500000 
Sr128	 0.997392	 0.804567	 0.500000 
Ti129	 0.816281	 0.853095	 0.000000 
Sr130	 0.670762	 0.068530	 0.000000 
Ti131	 0.610391	 0.084706	 0.500000 
Sr132	 0.876651	 0.836919	 0.500000 
Ti133	 0.695540	 0.885448	 0.000000 
Sr134	 0.550021	 0.100882	 0.000000 
Ti135	 0.489651	 0.117058	 0.500000 
Sr136	 0.755910	 0.869272	 0.500000 
Ti137	 0.574799	 0.917800	 0.000000 
Sr138	 0.429280	 0.133235	 0.000000 
Ti139	 0.368910	 0.149411	 0.500000 
Sr140	 0.635169	 0.901624	 0.500000 
Ti141	 0.454058	 0.950153	 0.000000 
Sr142	 0.308539	 0.165587	 0.000000 
Ti143	 0.248169	 0.181763	 0.500000 
Sr144	 0.514429	 0.933976	 0.500000 
Ti145	 0.333318	 0.982505	 0.000000 
Sr146	 0.187799	 0.197939	 0.000000 
Ti147	 0.127428	 0.214116	 0.500000 
Sr148	 0.393688	 0.966329	 0.500000 
Sr149	 0.067058	 0.230292	 0.000000 
Ti150	 0.006688	 0.246468	 0.500000 
Sr151	 0.272947	 0.998681	 0.500000 
Ti152	 0.851873	 0.020001	 0.500000 
#                 ---end-of-data-block---
