data_A fcc partile with size of 24 A with 100/111/110 ratio of 1/0.945198/2
_cell_length_a               31.360000
_cell_length_b               31.360000
_cell_length_c               31.360000
_cell_angle_alpha          90.000000
_cell_angle_beta           90.000000
_cell_angle_gamma          90.000000
_symmetry_cell_setting          Triclinic
_symmetry_space_group_name_H-M 'P 1' 
loop_
_atom_site_label
_atom_site_fract_x
_atom_site_fract_y
_atom_site_fract_z
Pt1	 0.332701	 0.294229	 0.187500 
Pt2	 0.503454	 0.339982	 0.187500 
Pt3	 0.449327	 0.371232	 0.125000 
Pt4	 0.418077	 0.317106	 0.187500 
Pt5	 0.363951	 0.348356	 0.125000 
Pt6	 0.395201	 0.402482	 0.187500 
Pt7	 0.341074	 0.433732	 0.125000 
Pt8	 0.309824	 0.379606	 0.187500 
Pt9	 0.286948	 0.464982	 0.187500 
Pt10	 0.674207	 0.385735	 0.187500 
Pt11	 0.620081	 0.416985	 0.125000 
Pt12	 0.588831	 0.362859	 0.187500 
Pt13	 0.534704	 0.394109	 0.125000 
Pt14	 0.565954	 0.448235	 0.187500 
Pt15	 0.511827	 0.479485	 0.125000 
Pt16	 0.480577	 0.425359	 0.187500 
Pt17	 0.426451	 0.456609	 0.125000 
Pt18	 0.457701	 0.510735	 0.187500 
Pt19	 0.403574	 0.541985	 0.125000 
Pt20	 0.372324	 0.487859	 0.187500 
Pt21	 0.318198	 0.519109	 0.125000 
Pt22	 0.349448	 0.573235	 0.187500 
Pt23	 0.295321	 0.604485	 0.125000 
Pt24	 0.264071	 0.550359	 0.187500 
Pt25	 0.241194	 0.635735	 0.187500 
Pt26	 0.759584	 0.408612	 0.187500 
Pt27	 0.705457	 0.439862	 0.125000 
Pt28	 0.736707	 0.493989	 0.187500 
Pt29	 0.682581	 0.525239	 0.125000 
Pt30	 0.651331	 0.471112	 0.187500 
Pt31	 0.597204	 0.502362	 0.125000 
Pt32	 0.628454	 0.556489	 0.187500 
Pt33	 0.574327	 0.587739	 0.125000 
Pt34	 0.543077	 0.533612	 0.187500 
Pt35	 0.488951	 0.564862	 0.125000 
Pt36	 0.520201	 0.618989	 0.187500 
Pt37	 0.466074	 0.650239	 0.125000 
Pt38	 0.434824	 0.596112	 0.187500 
Pt39	 0.380698	 0.627362	 0.125000 
Pt40	 0.411948	 0.681489	 0.187500 
Pt41	 0.357821	 0.712739	 0.125000 
Pt42	 0.326571	 0.658612	 0.187500 
Pt43	 0.272444	 0.689862	 0.125000 
Pt44	 0.303694	 0.743989	 0.187500 
Pt45	 0.218318	 0.721112	 0.187500 
Pt46	 0.713831	 0.579365	 0.187500 
Pt47	 0.659704	 0.610615	 0.125000 
Pt48	 0.690954	 0.664742	 0.187500 
Pt49	 0.636827	 0.695992	 0.125000 
Pt50	 0.605577	 0.641865	 0.187500 
Pt51	 0.551451	 0.673115	 0.125000 
Pt52	 0.582701	 0.727242	 0.187500 
Pt53	 0.528574	 0.758492	 0.125000 
Pt54	 0.497324	 0.704365	 0.187500 
Pt55	 0.443198	 0.735615	 0.125000 
Pt56	 0.474448	 0.789742	 0.187500 
Pt57	 0.389071	 0.766865	 0.187500 
Pt58	 0.668077	 0.750118	 0.187500 
Pt59	 0.613951	 0.781368	 0.125000 
Pt60	 0.645201	 0.835495	 0.187500 
Pt61	 0.559824	 0.812618	 0.187500 
Pt62	 0.440954	 0.231729	 0.312500 
Pt63	 0.386827	 0.262979	 0.250000 
Pt64	 0.355577	 0.208853	 0.312500 
Pt65	 0.301451	 0.240103	 0.250000 
Pt66	 0.332701	 0.294229	 0.312500 
Pt67	 0.278574	 0.325479	 0.250000 
Pt68	 0.247324	 0.271353	 0.312500 
Pt69	 0.224448	 0.356729	 0.312500 
Pt70	 0.611707	 0.277482	 0.312500 
Pt71	 0.557581	 0.308732	 0.250000 
Pt72	 0.526331	 0.254606	 0.312500 
Pt73	 0.472204	 0.285856	 0.250000 
Pt74	 0.503454	 0.339982	 0.312500 
Pt75	 0.449327	 0.371232	 0.250000 
Pt76	 0.418077	 0.317106	 0.312500 
Pt77	 0.363951	 0.348356	 0.250000 
Pt78	 0.395201	 0.402482	 0.312500 
Pt79	 0.341074	 0.433732	 0.250000 
Pt80	 0.309824	 0.379606	 0.312500 
Pt81	 0.255698	 0.410856	 0.250000 
Pt82	 0.286948	 0.464982	 0.312500 
Pt83	 0.232821	 0.496232	 0.250000 
Pt84	 0.201571	 0.442106	 0.312500 
Pt85	 0.178694	 0.527482	 0.312500 
Pt86	 0.782460	 0.323235	 0.312500 
Pt87	 0.728334	 0.354485	 0.250000 
Pt88	 0.697084	 0.300359	 0.312500 
Pt89	 0.642957	 0.331609	 0.250000 
Pt90	 0.674207	 0.385735	 0.312500 
Pt91	 0.620081	 0.416985	 0.250000 
Pt92	 0.588831	 0.362859	 0.312500 
Pt93	 0.534704	 0.394109	 0.250000 
Pt94	 0.565954	 0.448235	 0.312500 
Pt95	 0.511827	 0.479485	 0.250000 
Pt96	 0.480577	 0.425359	 0.312500 
Pt97	 0.426451	 0.456609	 0.250000 
Pt98	 0.457701	 0.510735	 0.312500 
Pt99	 0.403574	 0.541985	 0.250000 
Pt100	 0.372324	 0.487859	 0.312500 
Pt101	 0.318198	 0.519109	 0.250000 
Pt102	 0.349448	 0.573235	 0.312500 
Pt103	 0.295321	 0.604485	 0.250000 
Pt104	 0.264071	 0.550359	 0.312500 
Pt105	 0.209944	 0.581609	 0.250000 
Pt106	 0.241194	 0.635735	 0.312500 
Pt107	 0.187068	 0.666985	 0.250000 
Pt108	 0.155818	 0.612859	 0.312500 
Pt109	 0.132941	 0.698235	 0.312500 
Pt110	 0.813710	 0.377362	 0.250000 
Pt111	 0.844960	 0.431489	 0.312500 
Pt112	 0.790834	 0.462739	 0.250000 
Pt113	 0.759584	 0.408612	 0.312500 
Pt114	 0.705457	 0.439862	 0.250000 
Pt115	 0.736707	 0.493989	 0.312500 
Pt116	 0.682581	 0.525239	 0.250000 
Pt117	 0.651331	 0.471112	 0.312500 
Pt118	 0.597204	 0.502362	 0.250000 
Pt119	 0.628454	 0.556489	 0.312500 
Pt120	 0.574327	 0.587739	 0.250000 
Pt121	 0.543077	 0.533612	 0.312500 
Pt122	 0.488951	 0.564862	 0.250000 
Pt123	 0.520201	 0.618989	 0.312500 
Pt124	 0.466074	 0.650239	 0.250000 
Pt125	 0.434824	 0.596112	 0.312500 
Pt126	 0.380698	 0.627362	 0.250000 
Pt127	 0.411948	 0.681489	 0.312500 
Pt128	 0.357821	 0.712739	 0.250000 
Pt129	 0.326571	 0.658612	 0.312500 
Pt130	 0.272444	 0.689862	 0.250000 
Pt131	 0.303694	 0.743989	 0.312500 
Pt132	 0.249568	 0.775239	 0.250000 
Pt133	 0.218318	 0.721112	 0.312500 
Pt134	 0.164191	 0.752362	 0.250000 
Pt135	 0.195441	 0.806489	 0.312500 
Pt136	 0.822084	 0.516865	 0.312500 
Pt137	 0.767957	 0.548115	 0.250000 
Pt138	 0.799207	 0.602242	 0.312500 
Pt139	 0.745081	 0.633492	 0.250000 
Pt140	 0.713831	 0.579365	 0.312500 
Pt141	 0.659704	 0.610615	 0.250000 
Pt142	 0.690954	 0.664742	 0.312500 
Pt143	 0.636827	 0.695992	 0.250000 
Pt144	 0.605577	 0.641865	 0.312500 
Pt145	 0.551451	 0.673115	 0.250000 
Pt146	 0.582701	 0.727242	 0.312500 
Pt147	 0.528574	 0.758492	 0.250000 
Pt148	 0.497324	 0.704365	 0.312500 
Pt149	 0.443198	 0.735615	 0.250000 
Pt150	 0.474448	 0.789742	 0.312500 
Pt151	 0.420321	 0.820992	 0.250000 
Pt152	 0.389071	 0.766865	 0.312500 
Pt153	 0.334944	 0.798115	 0.250000 
Pt154	 0.366194	 0.852242	 0.312500 
Pt155	 0.280818	 0.829365	 0.312500 
Pt156	 0.776331	 0.687618	 0.312500 
Pt157	 0.722204	 0.718868	 0.250000 
Pt158	 0.753454	 0.772995	 0.312500 
Pt159	 0.699327	 0.804245	 0.250000 
Pt160	 0.668077	 0.750118	 0.312500 
Pt161	 0.613951	 0.781368	 0.250000 
Pt162	 0.645201	 0.835495	 0.312500 
Pt163	 0.591074	 0.866745	 0.250000 
Pt164	 0.559824	 0.812618	 0.312500 
Pt165	 0.505698	 0.843868	 0.250000 
Pt166	 0.536948	 0.897995	 0.312500 
Pt167	 0.451571	 0.875118	 0.312500 
Pt168	 0.730577	 0.858372	 0.312500 
Pt169	 0.676451	 0.889622	 0.250000 
Pt170	 0.622324	 0.920872	 0.312500 
Pt171	 0.549207	 0.169229	 0.437500 
Pt172	 0.495081	 0.200479	 0.375000 
Pt173	 0.463831	 0.146353	 0.437500 
Pt174	 0.409704	 0.177603	 0.375000 
Pt175	 0.440954	 0.231729	 0.437500 
Pt176	 0.386827	 0.262979	 0.375000 
Pt177	 0.355577	 0.208853	 0.437500 
Pt178	 0.301451	 0.240103	 0.375000 
Pt179	 0.332701	 0.294229	 0.437500 
Pt180	 0.278574	 0.325479	 0.375000 
Pt181	 0.247324	 0.271353	 0.437500 
Pt182	 0.193198	 0.302603	 0.375000 
Pt183	 0.224448	 0.356729	 0.437500 
Pt184	 0.170321	 0.387979	 0.375000 
Pt185	 0.139071	 0.333853	 0.437500 
Pt186	 0.116194	 0.419229	 0.437500 
Pt187	 0.719960	 0.214982	 0.437500 
Pt188	 0.665834	 0.246232	 0.375000 
Pt189	 0.634584	 0.192106	 0.437500 
Pt190	 0.580457	 0.223356	 0.375000 
Pt191	 0.611707	 0.277482	 0.437500 
Pt192	 0.557581	 0.308732	 0.375000 
Pt193	 0.526331	 0.254606	 0.437500 
Pt194	 0.472204	 0.285856	 0.375000 
Pt195	 0.503454	 0.339982	 0.437500 
Pt196	 0.449327	 0.371232	 0.375000 
Pt197	 0.418077	 0.317106	 0.437500 
Pt198	 0.363951	 0.348356	 0.375000 
Pt199	 0.395201	 0.402482	 0.437500 
Pt200	 0.341074	 0.433732	 0.375000 
Pt201	 0.309824	 0.379606	 0.437500 
Pt202	 0.255698	 0.410856	 0.375000 
Pt203	 0.286948	 0.464982	 0.437500 
Pt204	 0.232821	 0.496232	 0.375000 
Pt205	 0.201571	 0.442106	 0.437500 
Pt206	 0.147444	 0.473356	 0.375000 
Pt207	 0.178694	 0.527482	 0.437500 
Pt208	 0.124568	 0.558732	 0.375000 
Pt209	 0.093318	 0.504606	 0.437500 
Pt210	 0.070441	 0.589982	 0.437500 
Pt211	 0.751210	 0.269109	 0.375000 
Pt212	 0.782460	 0.323235	 0.437500 
Pt213	 0.728334	 0.354485	 0.375000 
Pt214	 0.697084	 0.300359	 0.437500 
Pt215	 0.642957	 0.331609	 0.375000 
Pt216	 0.674207	 0.385735	 0.437500 
Pt217	 0.620081	 0.416985	 0.375000 
Pt218	 0.588831	 0.362859	 0.437500 
Pt219	 0.534704	 0.394109	 0.375000 
Pt220	 0.565954	 0.448235	 0.437500 
Pt221	 0.511827	 0.479485	 0.375000 
Pt222	 0.480577	 0.425359	 0.437500 
Pt223	 0.426451	 0.456609	 0.375000 
Pt224	 0.457701	 0.510735	 0.437500 
Pt225	 0.403574	 0.541985	 0.375000 
Pt226	 0.372324	 0.487859	 0.437500 
Pt227	 0.318198	 0.519109	 0.375000 
Pt228	 0.349448	 0.573235	 0.437500 
Pt229	 0.295321	 0.604485	 0.375000 
Pt230	 0.264071	 0.550359	 0.437500 
Pt231	 0.209944	 0.581609	 0.375000 
Pt232	 0.241194	 0.635735	 0.437500 
Pt233	 0.187068	 0.666985	 0.375000 
Pt234	 0.155818	 0.612859	 0.437500 
Pt235	 0.101691	 0.644109	 0.375000 
Pt236	 0.132941	 0.698235	 0.437500 
Pt237	 0.813710	 0.377362	 0.375000 
Pt238	 0.844960	 0.431489	 0.437500 
Pt239	 0.790834	 0.462739	 0.375000 
Pt240	 0.759584	 0.408612	 0.437500 
Pt241	 0.705457	 0.439862	 0.375000 
Pt242	 0.736707	 0.493989	 0.437500 
Pt243	 0.682581	 0.525239	 0.375000 
Pt244	 0.651331	 0.471112	 0.437500 
Pt245	 0.597204	 0.502362	 0.375000 
Pt246	 0.628454	 0.556489	 0.437500 
Pt247	 0.574327	 0.587739	 0.375000 
Pt248	 0.543077	 0.533612	 0.437500 
Pt249	 0.488951	 0.564862	 0.375000 
Pt250	 0.520201	 0.618989	 0.437500 
Pt251	 0.466074	 0.650239	 0.375000 
Pt252	 0.434824	 0.596112	 0.437500 
Pt253	 0.380698	 0.627362	 0.375000 
Pt254	 0.411948	 0.681489	 0.437500 
Pt255	 0.357821	 0.712739	 0.375000 
Pt256	 0.326571	 0.658612	 0.437500 
Pt257	 0.272444	 0.689862	 0.375000 
Pt258	 0.303694	 0.743989	 0.437500 
Pt259	 0.249568	 0.775239	 0.375000 
Pt260	 0.218318	 0.721112	 0.437500 
Pt261	 0.164191	 0.752362	 0.375000 
Pt262	 0.195441	 0.806489	 0.437500 
Pt263	 0.876210	 0.485615	 0.375000 
Pt264	 0.907460	 0.539742	 0.437500 
Pt265	 0.853334	 0.570992	 0.375000 
Pt266	 0.822084	 0.516865	 0.437500 
Pt267	 0.767957	 0.548115	 0.375000 
Pt268	 0.799207	 0.602242	 0.437500 
Pt269	 0.745081	 0.633492	 0.375000 
Pt270	 0.713831	 0.579365	 0.437500 
Pt271	 0.659704	 0.610615	 0.375000 
Pt272	 0.690954	 0.664742	 0.437500 
Pt273	 0.636827	 0.695992	 0.375000 
Pt274	 0.605577	 0.641865	 0.437500 
Pt275	 0.551451	 0.673115	 0.375000 
Pt276	 0.582701	 0.727242	 0.437500 
Pt277	 0.528574	 0.758492	 0.375000 
Pt278	 0.497324	 0.704365	 0.437500 
Pt279	 0.443198	 0.735615	 0.375000 
Pt280	 0.474448	 0.789742	 0.437500 
Pt281	 0.420321	 0.820992	 0.375000 
Pt282	 0.389071	 0.766865	 0.437500 
Pt283	 0.334944	 0.798115	 0.375000 
Pt284	 0.366194	 0.852242	 0.437500 
Pt285	 0.312068	 0.883492	 0.375000 
Pt286	 0.280818	 0.829365	 0.437500 
Pt287	 0.226691	 0.860615	 0.375000 
Pt288	 0.257941	 0.914742	 0.437500 
Pt289	 0.884584	 0.625118	 0.437500 
Pt290	 0.830457	 0.656368	 0.375000 
Pt291	 0.861707	 0.710495	 0.437500 
Pt292	 0.807581	 0.741745	 0.375000 
Pt293	 0.776331	 0.687618	 0.437500 
Pt294	 0.722204	 0.718868	 0.375000 
Pt295	 0.753454	 0.772995	 0.437500 
Pt296	 0.699327	 0.804245	 0.375000 
Pt297	 0.668077	 0.750118	 0.437500 
Pt298	 0.613951	 0.781368	 0.375000 
Pt299	 0.645201	 0.835495	 0.437500 
Pt300	 0.591074	 0.866745	 0.375000 
Pt301	 0.559824	 0.812618	 0.437500 
Pt302	 0.505698	 0.843868	 0.375000 
Pt303	 0.536948	 0.897995	 0.437500 
Pt304	 0.482821	 0.929245	 0.375000 
Pt305	 0.451571	 0.875118	 0.437500 
Pt306	 0.397444	 0.906368	 0.375000 
Pt307	 0.428694	 0.960495	 0.437500 
Pt308	 0.343318	 0.937618	 0.437500 
Pt309	 0.838831	 0.795872	 0.437500 
Pt310	 0.784704	 0.827122	 0.375000 
Pt311	 0.730577	 0.858372	 0.437500 
Pt312	 0.676451	 0.889622	 0.375000 
Pt313	 0.622324	 0.920872	 0.437500 
Pt314	 0.568198	 0.952122	 0.375000 
Pt315	 0.514071	 0.983372	 0.437500 
Pt316	 0.603334	 0.137979	 0.500000 
Pt317	 0.517957	 0.115103	 0.500000 
Pt318	 0.549207	 0.169229	 0.562500 
Pt319	 0.495081	 0.200479	 0.500000 
Pt320	 0.463831	 0.146353	 0.562500 
Pt321	 0.409704	 0.177603	 0.500000 
Pt322	 0.440954	 0.231729	 0.562500 
Pt323	 0.386827	 0.262979	 0.500000 
Pt324	 0.355577	 0.208853	 0.562500 
Pt325	 0.301451	 0.240103	 0.500000 
Pt326	 0.332701	 0.294229	 0.562500 
Pt327	 0.278574	 0.325479	 0.500000 
Pt328	 0.247324	 0.271353	 0.562500 
Pt329	 0.193198	 0.302603	 0.500000 
Pt330	 0.224448	 0.356729	 0.562500 
Pt331	 0.170321	 0.387979	 0.500000 
Pt332	 0.139071	 0.333853	 0.562500 
Pt333	 0.084944	 0.365103	 0.500000 
Pt334	 0.116194	 0.419229	 0.562500 
Pt335	 0.062068	 0.450479	 0.500000 
Pt336	 0.688710	 0.160856	 0.500000 
Pt337	 0.719960	 0.214982	 0.562500 
Pt338	 0.665834	 0.246232	 0.500000 
Pt339	 0.634584	 0.192106	 0.562500 
Pt340	 0.580457	 0.223356	 0.500000 
Pt341	 0.611707	 0.277482	 0.562500 
Pt342	 0.557581	 0.308732	 0.500000 
Pt343	 0.526331	 0.254606	 0.562500 
Pt344	 0.472204	 0.285856	 0.500000 
Pt345	 0.503454	 0.339982	 0.562500 
Pt346	 0.449327	 0.371232	 0.500000 
Pt347	 0.418077	 0.317106	 0.562500 
Pt348	 0.363951	 0.348356	 0.500000 
Pt349	 0.395201	 0.402482	 0.562500 
Pt350	 0.341074	 0.433732	 0.500000 
Pt351	 0.309824	 0.379606	 0.562500 
Pt352	 0.255698	 0.410856	 0.500000 
Pt353	 0.286948	 0.464982	 0.562500 
Pt354	 0.232821	 0.496232	 0.500000 
Pt355	 0.201571	 0.442106	 0.562500 
Pt356	 0.147444	 0.473356	 0.500000 
Pt357	 0.178694	 0.527482	 0.562500 
Pt358	 0.124568	 0.558732	 0.500000 
Pt359	 0.093318	 0.504606	 0.562500 
Pt360	 0.039191	 0.535856	 0.500000 
Pt361	 0.070441	 0.589982	 0.562500 
Pt362	 0.751210	 0.269109	 0.500000 
Pt363	 0.782460	 0.323235	 0.562500 
Pt364	 0.728334	 0.354485	 0.500000 
Pt365	 0.697084	 0.300359	 0.562500 
Pt366	 0.642957	 0.331609	 0.500000 
Pt367	 0.674207	 0.385735	 0.562500 
Pt368	 0.620081	 0.416985	 0.500000 
Pt369	 0.588831	 0.362859	 0.562500 
Pt370	 0.534704	 0.394109	 0.500000 
Pt371	 0.565954	 0.448235	 0.562500 
Pt372	 0.511827	 0.479485	 0.500000 
Pt373	 0.480577	 0.425359	 0.562500 
Pt374	 0.426451	 0.456609	 0.500000 
Pt375	 0.457701	 0.510735	 0.562500 
Pt376	 0.403574	 0.541985	 0.500000 
Pt377	 0.372324	 0.487859	 0.562500 
Pt378	 0.318198	 0.519109	 0.500000 
Pt379	 0.349448	 0.573235	 0.562500 
Pt380	 0.295321	 0.604485	 0.500000 
Pt381	 0.264071	 0.550359	 0.562500 
Pt382	 0.209944	 0.581609	 0.500000 
Pt383	 0.241194	 0.635735	 0.562500 
Pt384	 0.187068	 0.666985	 0.500000 
Pt385	 0.155818	 0.612859	 0.562500 
Pt386	 0.101691	 0.644109	 0.500000 
Pt387	 0.132941	 0.698235	 0.562500 
Pt388	 0.813710	 0.377362	 0.500000 
Pt389	 0.844960	 0.431489	 0.562500 
Pt390	 0.790834	 0.462739	 0.500000 
Pt391	 0.759584	 0.408612	 0.562500 
Pt392	 0.705457	 0.439862	 0.500000 
Pt393	 0.736707	 0.493989	 0.562500 
Pt394	 0.682581	 0.525239	 0.500000 
Pt395	 0.651331	 0.471112	 0.562500 
Pt396	 0.597204	 0.502362	 0.500000 
Pt397	 0.628454	 0.556489	 0.562500 
Pt398	 0.574327	 0.587739	 0.500000 
Pt399	 0.543077	 0.533612	 0.562500 
Pt400	 0.488951	 0.564862	 0.500000 
Pt401	 0.520201	 0.618989	 0.562500 
Pt402	 0.466074	 0.650239	 0.500000 
Pt403	 0.434824	 0.596112	 0.562500 
Pt404	 0.380698	 0.627362	 0.500000 
Pt405	 0.411948	 0.681489	 0.562500 
Pt406	 0.357821	 0.712739	 0.500000 
Pt407	 0.326571	 0.658612	 0.562500 
Pt408	 0.272444	 0.689862	 0.500000 
Pt409	 0.303694	 0.743989	 0.562500 
Pt410	 0.249568	 0.775239	 0.500000 
Pt411	 0.218318	 0.721112	 0.562500 
Pt412	 0.164191	 0.752362	 0.500000 
Pt413	 0.195441	 0.806489	 0.562500 
Pt414	 0.876210	 0.485615	 0.500000 
Pt415	 0.907460	 0.539742	 0.562500 
Pt416	 0.853334	 0.570992	 0.500000 
Pt417	 0.822084	 0.516865	 0.562500 
Pt418	 0.767957	 0.548115	 0.500000 
Pt419	 0.799207	 0.602242	 0.562500 
Pt420	 0.745081	 0.633492	 0.500000 
Pt421	 0.713831	 0.579365	 0.562500 
Pt422	 0.659704	 0.610615	 0.500000 
Pt423	 0.690954	 0.664742	 0.562500 
Pt424	 0.636827	 0.695992	 0.500000 
Pt425	 0.605577	 0.641865	 0.562500 
Pt426	 0.551451	 0.673115	 0.500000 
Pt427	 0.582701	 0.727242	 0.562500 
Pt428	 0.528574	 0.758492	 0.500000 
Pt429	 0.497324	 0.704365	 0.562500 
Pt430	 0.443198	 0.735615	 0.500000 
Pt431	 0.474448	 0.789742	 0.562500 
Pt432	 0.420321	 0.820992	 0.500000 
Pt433	 0.389071	 0.766865	 0.562500 
Pt434	 0.334944	 0.798115	 0.500000 
Pt435	 0.366194	 0.852242	 0.562500 
Pt436	 0.312068	 0.883492	 0.500000 
Pt437	 0.280818	 0.829365	 0.562500 
Pt438	 0.226691	 0.860615	 0.500000 
Pt439	 0.257941	 0.914742	 0.562500 
Pt440	 0.938710	 0.593868	 0.500000 
Pt441	 0.915834	 0.679245	 0.500000 
Pt442	 0.884584	 0.625118	 0.562500 
Pt443	 0.830457	 0.656368	 0.500000 
Pt444	 0.861707	 0.710495	 0.562500 
Pt445	 0.807581	 0.741745	 0.500000 
Pt446	 0.776331	 0.687618	 0.562500 
Pt447	 0.722204	 0.718868	 0.500000 
Pt448	 0.753454	 0.772995	 0.562500 
Pt449	 0.699327	 0.804245	 0.500000 
Pt450	 0.668077	 0.750118	 0.562500 
Pt451	 0.613951	 0.781368	 0.500000 
Pt452	 0.645201	 0.835495	 0.562500 
Pt453	 0.591074	 0.866745	 0.500000 
Pt454	 0.559824	 0.812618	 0.562500 
Pt455	 0.505698	 0.843868	 0.500000 
Pt456	 0.536948	 0.897995	 0.562500 
Pt457	 0.482821	 0.929245	 0.500000 
Pt458	 0.451571	 0.875118	 0.562500 
Pt459	 0.397444	 0.906368	 0.500000 
Pt460	 0.428694	 0.960495	 0.562500 
Pt461	 0.374568	 0.991745	 0.500000 
Pt462	 0.343318	 0.937618	 0.562500 
Pt463	 0.289191	 0.968868	 0.500000 
Pt464	 0.892957	 0.764622	 0.500000 
Pt465	 0.838831	 0.795872	 0.562500 
Pt466	 0.784704	 0.827122	 0.500000 
Pt467	 0.730577	 0.858372	 0.562500 
Pt468	 0.676451	 0.889622	 0.500000 
Pt469	 0.622324	 0.920872	 0.562500 
Pt470	 0.568198	 0.952122	 0.500000 
Pt471	 0.514071	 0.983372	 0.562500 
Pt472	 0.495081	 0.200479	 0.625000 
Pt473	 0.409704	 0.177603	 0.625000 
Pt474	 0.440954	 0.231729	 0.687500 
Pt475	 0.386827	 0.262979	 0.625000 
Pt476	 0.355577	 0.208853	 0.687500 
Pt477	 0.301451	 0.240103	 0.625000 
Pt478	 0.332701	 0.294229	 0.687500 
Pt479	 0.278574	 0.325479	 0.625000 
Pt480	 0.247324	 0.271353	 0.687500 
Pt481	 0.193198	 0.302603	 0.625000 
Pt482	 0.224448	 0.356729	 0.687500 
Pt483	 0.170321	 0.387979	 0.625000 
Pt484	 0.665834	 0.246232	 0.625000 
Pt485	 0.580457	 0.223356	 0.625000 
Pt486	 0.611707	 0.277482	 0.687500 
Pt487	 0.557581	 0.308732	 0.625000 
Pt488	 0.526331	 0.254606	 0.687500 
Pt489	 0.472204	 0.285856	 0.625000 
Pt490	 0.503454	 0.339982	 0.687500 
Pt491	 0.449327	 0.371232	 0.625000 
Pt492	 0.418077	 0.317106	 0.687500 
Pt493	 0.363951	 0.348356	 0.625000 
Pt494	 0.395201	 0.402482	 0.687500 
Pt495	 0.341074	 0.433732	 0.625000 
Pt496	 0.309824	 0.379606	 0.687500 
Pt497	 0.255698	 0.410856	 0.625000 
Pt498	 0.286948	 0.464982	 0.687500 
Pt499	 0.232821	 0.496232	 0.625000 
Pt500	 0.201571	 0.442106	 0.687500 
Pt501	 0.147444	 0.473356	 0.625000 
Pt502	 0.178694	 0.527482	 0.687500 
Pt503	 0.124568	 0.558732	 0.625000 
Pt504	 0.751210	 0.269109	 0.625000 
Pt505	 0.782460	 0.323235	 0.687500 
Pt506	 0.728334	 0.354485	 0.625000 
Pt507	 0.697084	 0.300359	 0.687500 
Pt508	 0.642957	 0.331609	 0.625000 
Pt509	 0.674207	 0.385735	 0.687500 
Pt510	 0.620081	 0.416985	 0.625000 
Pt511	 0.588831	 0.362859	 0.687500 
Pt512	 0.534704	 0.394109	 0.625000 
Pt513	 0.565954	 0.448235	 0.687500 
Pt514	 0.511827	 0.479485	 0.625000 
Pt515	 0.480577	 0.425359	 0.687500 
Pt516	 0.426451	 0.456609	 0.625000 
Pt517	 0.457701	 0.510735	 0.687500 
Pt518	 0.403574	 0.541985	 0.625000 
Pt519	 0.372324	 0.487859	 0.687500 
Pt520	 0.318198	 0.519109	 0.625000 
Pt521	 0.349448	 0.573235	 0.687500 
Pt522	 0.295321	 0.604485	 0.625000 
Pt523	 0.264071	 0.550359	 0.687500 
Pt524	 0.209944	 0.581609	 0.625000 
Pt525	 0.241194	 0.635735	 0.687500 
Pt526	 0.187068	 0.666985	 0.625000 
Pt527	 0.155818	 0.612859	 0.687500 
Pt528	 0.101691	 0.644109	 0.625000 
Pt529	 0.132941	 0.698235	 0.687500 
Pt530	 0.813710	 0.377362	 0.625000 
Pt531	 0.844960	 0.431489	 0.687500 
Pt532	 0.790834	 0.462739	 0.625000 
Pt533	 0.759584	 0.408612	 0.687500 
Pt534	 0.705457	 0.439862	 0.625000 
Pt535	 0.736707	 0.493989	 0.687500 
Pt536	 0.682581	 0.525239	 0.625000 
Pt537	 0.651331	 0.471112	 0.687500 
Pt538	 0.597204	 0.502362	 0.625000 
Pt539	 0.628454	 0.556489	 0.687500 
Pt540	 0.574327	 0.587739	 0.625000 
Pt541	 0.543077	 0.533612	 0.687500 
Pt542	 0.488951	 0.564862	 0.625000 
Pt543	 0.520201	 0.618989	 0.687500 
Pt544	 0.466074	 0.650239	 0.625000 
Pt545	 0.434824	 0.596112	 0.687500 
Pt546	 0.380698	 0.627362	 0.625000 
Pt547	 0.411948	 0.681489	 0.687500 
Pt548	 0.357821	 0.712739	 0.625000 
Pt549	 0.326571	 0.658612	 0.687500 
Pt550	 0.272444	 0.689862	 0.625000 
Pt551	 0.303694	 0.743989	 0.687500 
Pt552	 0.249568	 0.775239	 0.625000 
Pt553	 0.218318	 0.721112	 0.687500 
Pt554	 0.164191	 0.752362	 0.625000 
Pt555	 0.195441	 0.806489	 0.687500 
Pt556	 0.876210	 0.485615	 0.625000 
Pt557	 0.853334	 0.570992	 0.625000 
Pt558	 0.822084	 0.516865	 0.687500 
Pt559	 0.767957	 0.548115	 0.625000 
Pt560	 0.799207	 0.602242	 0.687500 
Pt561	 0.745081	 0.633492	 0.625000 
Pt562	 0.713831	 0.579365	 0.687500 
Pt563	 0.659704	 0.610615	 0.625000 
Pt564	 0.690954	 0.664742	 0.687500 
Pt565	 0.636827	 0.695992	 0.625000 
Pt566	 0.605577	 0.641865	 0.687500 
Pt567	 0.551451	 0.673115	 0.625000 
Pt568	 0.582701	 0.727242	 0.687500 
Pt569	 0.528574	 0.758492	 0.625000 
Pt570	 0.497324	 0.704365	 0.687500 
Pt571	 0.443198	 0.735615	 0.625000 
Pt572	 0.474448	 0.789742	 0.687500 
Pt573	 0.420321	 0.820992	 0.625000 
Pt574	 0.389071	 0.766865	 0.687500 
Pt575	 0.334944	 0.798115	 0.625000 
Pt576	 0.366194	 0.852242	 0.687500 
Pt577	 0.312068	 0.883492	 0.625000 
Pt578	 0.280818	 0.829365	 0.687500 
Pt579	 0.226691	 0.860615	 0.625000 
Pt580	 0.830457	 0.656368	 0.625000 
Pt581	 0.807581	 0.741745	 0.625000 
Pt582	 0.776331	 0.687618	 0.687500 
Pt583	 0.722204	 0.718868	 0.625000 
Pt584	 0.753454	 0.772995	 0.687500 
Pt585	 0.699327	 0.804245	 0.625000 
Pt586	 0.668077	 0.750118	 0.687500 
Pt587	 0.613951	 0.781368	 0.625000 
Pt588	 0.645201	 0.835495	 0.687500 
Pt589	 0.591074	 0.866745	 0.625000 
Pt590	 0.559824	 0.812618	 0.687500 
Pt591	 0.505698	 0.843868	 0.625000 
Pt592	 0.536948	 0.897995	 0.687500 
Pt593	 0.482821	 0.929245	 0.625000 
Pt594	 0.451571	 0.875118	 0.687500 
Pt595	 0.397444	 0.906368	 0.625000 
Pt596	 0.784704	 0.827122	 0.625000 
Pt597	 0.730577	 0.858372	 0.687500 
Pt598	 0.676451	 0.889622	 0.625000 
Pt599	 0.622324	 0.920872	 0.687500 
Pt600	 0.568198	 0.952122	 0.625000 
Pt601	 0.386827	 0.262979	 0.750000 
Pt602	 0.301451	 0.240103	 0.750000 
Pt603	 0.332701	 0.294229	 0.812500 
Pt604	 0.278574	 0.325479	 0.750000 
Pt605	 0.557581	 0.308732	 0.750000 
Pt606	 0.472204	 0.285856	 0.750000 
Pt607	 0.503454	 0.339982	 0.812500 
Pt608	 0.449327	 0.371232	 0.750000 
Pt609	 0.418077	 0.317106	 0.812500 
Pt610	 0.363951	 0.348356	 0.750000 
Pt611	 0.395201	 0.402482	 0.812500 
Pt612	 0.341074	 0.433732	 0.750000 
Pt613	 0.309824	 0.379606	 0.812500 
Pt614	 0.255698	 0.410856	 0.750000 
Pt615	 0.286948	 0.464982	 0.812500 
Pt616	 0.232821	 0.496232	 0.750000 
Pt617	 0.728334	 0.354485	 0.750000 
Pt618	 0.642957	 0.331609	 0.750000 
Pt619	 0.674207	 0.385735	 0.812500 
Pt620	 0.620081	 0.416985	 0.750000 
Pt621	 0.588831	 0.362859	 0.812500 
Pt622	 0.534704	 0.394109	 0.750000 
Pt623	 0.565954	 0.448235	 0.812500 
Pt624	 0.511827	 0.479485	 0.750000 
Pt625	 0.480577	 0.425359	 0.812500 
Pt626	 0.426451	 0.456609	 0.750000 
Pt627	 0.457701	 0.510735	 0.812500 
Pt628	 0.403574	 0.541985	 0.750000 
Pt629	 0.372324	 0.487859	 0.812500 
Pt630	 0.318198	 0.519109	 0.750000 
Pt631	 0.349448	 0.573235	 0.812500 
Pt632	 0.295321	 0.604485	 0.750000 
Pt633	 0.264071	 0.550359	 0.812500 
Pt634	 0.209944	 0.581609	 0.750000 
Pt635	 0.241194	 0.635735	 0.812500 
Pt636	 0.187068	 0.666985	 0.750000 
Pt637	 0.813710	 0.377362	 0.750000 
Pt638	 0.790834	 0.462739	 0.750000 
Pt639	 0.759584	 0.408612	 0.812500 
Pt640	 0.705457	 0.439862	 0.750000 
Pt641	 0.736707	 0.493989	 0.812500 
Pt642	 0.682581	 0.525239	 0.750000 
Pt643	 0.651331	 0.471112	 0.812500 
Pt644	 0.597204	 0.502362	 0.750000 
Pt645	 0.628454	 0.556489	 0.812500 
Pt646	 0.574327	 0.587739	 0.750000 
Pt647	 0.543077	 0.533612	 0.812500 
Pt648	 0.488951	 0.564862	 0.750000 
Pt649	 0.520201	 0.618989	 0.812500 
Pt650	 0.466074	 0.650239	 0.750000 
Pt651	 0.434824	 0.596112	 0.812500 
Pt652	 0.380698	 0.627362	 0.750000 
Pt653	 0.411948	 0.681489	 0.812500 
Pt654	 0.357821	 0.712739	 0.750000 
Pt655	 0.326571	 0.658612	 0.812500 
Pt656	 0.272444	 0.689862	 0.750000 
Pt657	 0.303694	 0.743989	 0.812500 
Pt658	 0.249568	 0.775239	 0.750000 
Pt659	 0.218318	 0.721112	 0.812500 
Pt660	 0.164191	 0.752362	 0.750000 
Pt661	 0.767957	 0.548115	 0.750000 
Pt662	 0.745081	 0.633492	 0.750000 
Pt663	 0.713831	 0.579365	 0.812500 
Pt664	 0.659704	 0.610615	 0.750000 
Pt665	 0.690954	 0.664742	 0.812500 
Pt666	 0.636827	 0.695992	 0.750000 
Pt667	 0.605577	 0.641865	 0.812500 
Pt668	 0.551451	 0.673115	 0.750000 
Pt669	 0.582701	 0.727242	 0.812500 
Pt670	 0.528574	 0.758492	 0.750000 
Pt671	 0.497324	 0.704365	 0.812500 
Pt672	 0.443198	 0.735615	 0.750000 
Pt673	 0.474448	 0.789742	 0.812500 
Pt674	 0.420321	 0.820992	 0.750000 
Pt675	 0.389071	 0.766865	 0.812500 
Pt676	 0.334944	 0.798115	 0.750000 
Pt677	 0.722204	 0.718868	 0.750000 
Pt678	 0.699327	 0.804245	 0.750000 
Pt679	 0.668077	 0.750118	 0.812500 
Pt680	 0.613951	 0.781368	 0.750000 
Pt681	 0.645201	 0.835495	 0.812500 
Pt682	 0.591074	 0.866745	 0.750000 
Pt683	 0.559824	 0.812618	 0.812500 
Pt684	 0.505698	 0.843868	 0.750000 
Pt685	 0.676451	 0.889622	 0.750000 
Pt686	 0.449327	 0.371232	 0.875000 
Pt687	 0.363951	 0.348356	 0.875000 
Pt688	 0.341074	 0.433732	 0.875000 
Pt689	 0.620081	 0.416985	 0.875000 
Pt690	 0.534704	 0.394109	 0.875000 
Pt691	 0.511827	 0.479485	 0.875000 
Pt692	 0.426451	 0.456609	 0.875000 
Pt693	 0.403574	 0.541985	 0.875000 
Pt694	 0.318198	 0.519109	 0.875000 
Pt695	 0.295321	 0.604485	 0.875000 
Pt696	 0.705457	 0.439862	 0.875000 
Pt697	 0.682581	 0.525239	 0.875000 
Pt698	 0.597204	 0.502362	 0.875000 
Pt699	 0.574327	 0.587739	 0.875000 
Pt700	 0.488951	 0.564862	 0.875000 
Pt701	 0.466074	 0.650239	 0.875000 
Pt702	 0.380698	 0.627362	 0.875000 
Pt703	 0.357821	 0.712739	 0.875000 
Pt704	 0.272444	 0.689862	 0.875000 
Pt705	 0.659704	 0.610615	 0.875000 
Pt706	 0.636827	 0.695992	 0.875000 
Pt707	 0.551451	 0.673115	 0.875000 
Pt708	 0.528574	 0.758492	 0.875000 
Pt709	 0.443198	 0.735615	 0.875000 
Pt710	 0.613951	 0.781368	 0.875000 
#                 ---end-of-data-block---
