data_C:\Users\admin\Documents\atomsegmentation_bupt_fullsuite_3\misc\12049.cif
_cell_length_a               31.652800
_cell_length_b               31.652800
_cell_length_c               5.449400
_cell_angle_alpha          90.000000
_cell_angle_beta           90.000000
_cell_angle_gamma          90.000000
_symmetry_cell_setting          Triclinic
_symmetry_space_group_name_H-M 'P 1' 
loop_
_atom_site_label
_atom_site_fract_x
_atom_site_fract_y
_atom_site_fract_z
Sc1	 0.107292	 0.123398	 0.000000 
Sc2	 0.083881	 0.210771	 0.500000 
Sc3	 0.228033	 0.155750	 0.000000 
Sc4	 0.204622	 0.243123	 0.500000 
Dy5	 0.188232	 0.062809	 0.017200 
Dy6	 0.291246	 0.161320	 0.517200 
Dy7	 0.267834	 0.248692	 0.982800 
Dy8	 0.164821	 0.150181	 0.482800 
Sc9	 0.060470	 0.298144	 0.000000 
Sc10	 0.037058	 0.385516	 0.500000 
Sc11	 0.181210	 0.330496	 0.000000 
Sc12	 0.157799	 0.417869	 0.500000 
Dy13	 0.141409	 0.237554	 0.017200 
Dy14	 0.244423	 0.336065	 0.517200 
Dy15	 0.221011	 0.423438	 0.982800 
Dy16	 0.117998	 0.324927	 0.482800 
Sc17	 0.013647	 0.472889	 0.000000 
Sc18	 0.134387	 0.505241	 0.000000 
Sc19	 0.110976	 0.592614	 0.500000 
Dy20	 0.094586	 0.412299	 0.017200 
Dy21	 0.197600	 0.510810	 0.517200 
Dy22	 0.174188	 0.598183	 0.982800 
Dy23	 0.071175	 0.499672	 0.482800 
Sc24	 0.087565	 0.679987	 0.000000 
Sc25	 0.064153	 0.767359	 0.500000 
Dy26	 0.047763	 0.587045	 0.017200 
Dy27	 0.150777	 0.685556	 0.517200 
Dy28	 0.127366	 0.772929	 0.982800 
Dy29	 0.024352	 0.674418	 0.482800 
Sc30	 0.130704	 0.036025	 0.500000 
Sc31	 0.251445	 0.068378	 0.500000 
Dy32	 0.000941	 0.761790	 0.017200 
Dy33	 0.103954	 0.860301	 0.517200 
Dy34	 0.314657	 0.073947	 0.982800 
Sc35	 0.348774	 0.188103	 0.000000 
Sc36	 0.325362	 0.275476	 0.500000 
Sc37	 0.469515	 0.220455	 0.000000 
Sc38	 0.446103	 0.307828	 0.500000 
Dy39	 0.429714	 0.127513	 0.017200 
Dy40	 0.532727	 0.226024	 0.517200 
Dy41	 0.509316	 0.313397	 0.982800 
Dy42	 0.406302	 0.214886	 0.482800 
Sc43	 0.301951	 0.362848	 0.000000 
Sc44	 0.278540	 0.450221	 0.500000 
Sc45	 0.422692	 0.395201	 0.000000 
Sc46	 0.399280	 0.482573	 0.500000 
Dy47	 0.382891	 0.302259	 0.017200 
Dy48	 0.485904	 0.400770	 0.517200 
Dy49	 0.462493	 0.488142	 0.982800 
Dy50	 0.359479	 0.389632	 0.482800 
Sc51	 0.255128	 0.537594	 0.000000 
Sc52	 0.231717	 0.624966	 0.500000 
Sc53	 0.375869	 0.569946	 0.000000 
Sc54	 0.352457	 0.657319	 0.500000 
Dy55	 0.336068	 0.477004	 0.017200 
Dy56	 0.439081	 0.575515	 0.517200 
Dy57	 0.415670	 0.662888	 0.982800 
Dy58	 0.312656	 0.564377	 0.482800 
Sc59	 0.208305	 0.712339	 0.000000 
Sc60	 0.184894	 0.799712	 0.500000 
Sc61	 0.329046	 0.744691	 0.000000 
Sc62	 0.305635	 0.832064	 0.500000 
Dy63	 0.289245	 0.651750	 0.017200 
Dy64	 0.392259	 0.750261	 0.517200 
Dy65	 0.368847	 0.837633	 0.982800 
Dy66	 0.265833	 0.739122	 0.482800 
Sc67	 0.395597	 0.013357	 0.000000 
Sc68	 0.372185	 0.100730	 0.500000 
Sc69	 0.516338	 0.045710	 0.000000 
Sc70	 0.492926	 0.133083	 0.500000 
Dy71	 0.242422	 0.826495	 0.017200 
Dy72	 0.345436	 0.925006	 0.517200 
Dy73	 0.556139	 0.138652	 0.982800 
Dy74	 0.453125	 0.040141	 0.482800 
Sc75	 0.590255	 0.252808	 0.000000 
Sc76	 0.566844	 0.340180	 0.500000 
Sc77	 0.710996	 0.285160	 0.000000 
Sc78	 0.687585	 0.372533	 0.500000 
Dy79	 0.671195	 0.192218	 0.017200 
Dy80	 0.774209	 0.290729	 0.517200 
Dy81	 0.750797	 0.378102	 0.982800 
Dy82	 0.647784	 0.279591	 0.482800 
Sc83	 0.543432	 0.427553	 0.000000 
Sc84	 0.520021	 0.514926	 0.500000 
Sc85	 0.664173	 0.459905	 0.000000 
Sc86	 0.640762	 0.547278	 0.500000 
Dy87	 0.624372	 0.366964	 0.017200 
Dy88	 0.727386	 0.465475	 0.517200 
Dy89	 0.703974	 0.552847	 0.982800 
Dy90	 0.600961	 0.454336	 0.482800 
Sc91	 0.496610	 0.602298	 0.000000 
Sc92	 0.473198	 0.689671	 0.500000 
Sc93	 0.617350	 0.634651	 0.000000 
Sc94	 0.593939	 0.722024	 0.500000 
Dy95	 0.577549	 0.541709	 0.017200 
Dy96	 0.680563	 0.640220	 0.517200 
Dy97	 0.657151	 0.727593	 0.982800 
Dy98	 0.554138	 0.629082	 0.482800 
Sc99	 0.449787	 0.777044	 0.000000 
Sc100	 0.426375	 0.864417	 0.500000 
Sc101	 0.570527	 0.809396	 0.000000 
Sc102	 0.547116	 0.896769	 0.500000 
Dy103	 0.530726	 0.716454	 0.017200 
Dy104	 0.633740	 0.814965	 0.517200 
Dy105	 0.610329	 0.902338	 0.982800 
Dy106	 0.507315	 0.803827	 0.482800 
Sc107	 0.637078	 0.078062	 0.000000 
Sc108	 0.613667	 0.165435	 0.500000 
Sc109	 0.757819	 0.110415	 0.000000 
Sc110	 0.734408	 0.197787	 0.500000 
Dy111	 0.483903	 0.891200	 0.017200 
Dy112	 0.586917	 0.989711	 0.517200 
Dy113	 0.797620	 0.203356	 0.982800 
Dy114	 0.694606	 0.104845	 0.482800 
Sc115	 0.831737	 0.317512	 0.000000 
Sc116	 0.808325	 0.404885	 0.500000 
Sc117	 0.952478	 0.349865	 0.000000 
Sc118	 0.929066	 0.437237	 0.500000 
Dy119	 0.912677	 0.256923	 0.017200 
Dy120	 0.992279	 0.442807	 0.982800 
Dy121	 0.889265	 0.344296	 0.482800 
Sc122	 0.784914	 0.492258	 0.000000 
Sc123	 0.761503	 0.579630	 0.500000 
Sc124	 0.905655	 0.524610	 0.000000 
Sc125	 0.882243	 0.611983	 0.500000 
Dy126	 0.865854	 0.431668	 0.017200 
Dy127	 0.968867	 0.530179	 0.517200 
Dy128	 0.945456	 0.617552	 0.982800 
Dy129	 0.842442	 0.519041	 0.482800 
Sc130	 0.738091	 0.667003	 0.000000 
Sc131	 0.714680	 0.754376	 0.500000 
Sc132	 0.858832	 0.699356	 0.000000 
Sc133	 0.835420	 0.786728	 0.500000 
Dy134	 0.819031	 0.606414	 0.017200 
Dy135	 0.922044	 0.704925	 0.517200 
Dy136	 0.898633	 0.792297	 0.982800 
Dy137	 0.795619	 0.693786	 0.482800 
Sc138	 0.691268	 0.841749	 0.000000 
Sc139	 0.667857	 0.929121	 0.500000 
Sc140	 0.812009	 0.874101	 0.000000 
Sc141	 0.788597	 0.961474	 0.500000 
Dy142	 0.772208	 0.781159	 0.017200 
Dy143	 0.875221	 0.879670	 0.517200 
Dy144	 0.851810	 0.967043	 0.982800 
Dy145	 0.748796	 0.868532	 0.482800 
Sc146	 0.878560	 0.142767	 0.000000 
Sc147	 0.855148	 0.230140	 0.500000 
Sc148	 0.999300	 0.175119	 0.000000 
Sc149	 0.975889	 0.262492	 0.500000 
Dy150	 0.725385	 0.955905	 0.017200 
Dy151	 0.936088	 0.169550	 0.482800 
#                 ---end-of-data-block---
