data_C:\Users\admin\Documents\atomsegmentation_bupt_fullsuite_3\misc\12048.cif
_cell_length_a               31.652800
_cell_length_b               31.652800
_cell_length_c               5.449400
_cell_angle_alpha          90.000000
_cell_angle_beta           90.000000
_cell_angle_gamma          90.000000
_symmetry_cell_setting          Triclinic
_symmetry_space_group_name_H-M 'P 1' 
loop_
_atom_site_label
_atom_site_fract_x
_atom_site_fract_y
_atom_site_fract_z
Sc1	 0.112300	 0.058500	 0.000000 
Sc2	 0.088888	 0.145873	 0.500000 
Sc3	 0.233041	 0.090853	 0.000000 
Sc4	 0.209629	 0.178226	 0.500000 
Dy5	 0.296253	 0.096422	 0.517200 
Dy6	 0.272842	 0.183795	 0.982800 
Dy7	 0.169828	 0.085284	 0.482800 
Sc8	 0.065477	 0.233246	 0.000000 
Sc9	 0.042066	 0.320619	 0.500000 
Sc10	 0.186218	 0.265598	 0.000000 
Sc11	 0.162806	 0.352971	 0.500000 
Dy12	 0.146417	 0.172656	 0.017200 
Dy13	 0.249430	 0.271167	 0.517200 
Dy14	 0.226019	 0.358540	 0.982800 
Dy15	 0.123005	 0.260029	 0.482800 
Sc16	 0.018654	 0.407991	 0.000000 
Sc17	 0.139395	 0.440344	 0.000000 
Sc18	 0.115983	 0.527716	 0.500000 
Dy19	 0.099594	 0.347402	 0.017200 
Dy20	 0.202607	 0.445913	 0.517200 
Dy21	 0.179196	 0.533285	 0.982800 
Dy22	 0.076182	 0.434774	 0.482800 
Sc23	 0.092572	 0.615089	 0.000000 
Sc24	 0.069160	 0.702462	 0.500000 
Dy25	 0.052771	 0.522147	 0.017200 
Dy26	 0.155784	 0.620658	 0.517200 
Dy27	 0.132373	 0.708031	 0.982800 
Dy28	 0.029359	 0.609520	 0.482800 
Sc29	 0.045749	 0.789834	 0.000000 
Sc30	 0.256452	 0.003480	 0.500000 
Dy31	 0.005948	 0.696893	 0.017200 
Dy32	 0.108962	 0.795404	 0.517200 
Dy33	 0.319665	 0.009049	 0.982800 
Sc34	 0.353781	 0.123205	 0.000000 
Sc35	 0.330370	 0.210578	 0.500000 
Sc36	 0.474522	 0.155558	 0.000000 
Sc37	 0.451111	 0.242930	 0.500000 
Dy38	 0.434721	 0.062616	 0.017200 
Dy39	 0.537735	 0.161127	 0.517200 
Dy40	 0.514323	 0.248499	 0.982800 
Dy41	 0.411310	 0.149988	 0.482800 
Sc42	 0.306958	 0.297951	 0.000000 
Sc43	 0.283547	 0.385323	 0.500000 
Sc44	 0.427699	 0.330303	 0.000000 
Sc45	 0.404288	 0.417676	 0.500000 
Dy46	 0.387898	 0.237361	 0.017200 
Dy47	 0.490912	 0.335872	 0.517200 
Dy48	 0.467500	 0.423245	 0.982800 
Dy49	 0.364487	 0.324734	 0.482800 
Sc50	 0.260136	 0.472696	 0.000000 
Sc51	 0.236724	 0.560069	 0.500000 
Sc52	 0.380876	 0.505048	 0.000000 
Sc53	 0.357465	 0.592421	 0.500000 
Dy54	 0.341075	 0.412107	 0.017200 
Dy55	 0.444089	 0.510618	 0.517200 
Dy56	 0.420677	 0.597990	 0.982800 
Dy57	 0.317664	 0.499479	 0.482800 
Sc58	 0.213313	 0.647441	 0.000000 
Sc59	 0.189901	 0.734814	 0.500000 
Sc60	 0.334053	 0.679794	 0.000000 
Sc61	 0.310642	 0.767166	 0.500000 
Dy62	 0.294252	 0.586852	 0.017200 
Dy63	 0.397266	 0.685363	 0.517200 
Dy64	 0.373854	 0.772736	 0.982800 
Dy65	 0.270841	 0.674225	 0.482800 
Sc66	 0.166490	 0.822187	 0.000000 
Sc67	 0.377193	 0.035833	 0.500000 
Sc68	 0.287230	 0.854539	 0.000000 
Sc69	 0.497933	 0.068185	 0.500000 
Dy70	 0.247429	 0.761597	 0.017200 
Dy71	 0.350443	 0.860108	 0.517200 
Dy72	 0.561146	 0.073754	 0.982800 
Dy73	 0.224018	 0.848970	 0.482800 
Sc74	 0.595263	 0.187910	 0.000000 
Sc75	 0.571851	 0.275283	 0.500000 
Sc76	 0.716003	 0.220262	 0.000000 
Sc77	 0.692592	 0.307635	 0.500000 
Dy78	 0.676202	 0.127321	 0.017200 
Dy79	 0.779216	 0.225831	 0.517200 
Dy80	 0.755805	 0.313204	 0.982800 
Dy81	 0.652791	 0.214693	 0.482800 
Sc82	 0.548440	 0.362655	 0.000000 
Sc83	 0.525028	 0.450028	 0.500000 
Sc84	 0.669181	 0.395008	 0.000000 
Sc85	 0.645769	 0.482380	 0.500000 
Dy86	 0.629380	 0.302066	 0.017200 
Dy87	 0.732393	 0.400577	 0.517200 
Dy88	 0.708982	 0.487950	 0.982800 
Dy89	 0.605968	 0.389439	 0.482800 
Sc90	 0.501617	 0.537401	 0.000000 
Sc91	 0.478206	 0.624773	 0.500000 
Sc92	 0.622358	 0.569753	 0.000000 
Sc93	 0.598946	 0.657126	 0.500000 
Dy94	 0.582557	 0.476811	 0.017200 
Dy95	 0.685570	 0.575322	 0.517200 
Dy96	 0.662159	 0.662695	 0.982800 
Dy97	 0.559145	 0.564184	 0.482800 
Sc98	 0.454794	 0.712146	 0.000000 
Sc99	 0.431383	 0.799519	 0.500000 
Sc100	 0.575535	 0.744499	 0.000000 
Sc101	 0.552123	 0.831871	 0.500000 
Dy102	 0.535734	 0.651557	 0.017200 
Dy103	 0.638747	 0.750068	 0.517200 
Dy104	 0.615336	 0.837440	 0.982800 
Dy105	 0.512322	 0.738929	 0.482800 
Sc106	 0.407971	 0.886892	 0.000000 
Sc107	 0.618674	 0.100537	 0.500000 
Sc108	 0.528712	 0.919244	 0.000000 
Sc109	 0.739415	 0.132890	 0.500000 
Dy110	 0.488911	 0.826302	 0.017200 
Dy111	 0.591924	 0.924813	 0.517200 
Dy112	 0.802627	 0.138459	 0.982800 
Dy113	 0.465499	 0.913675	 0.482800 
Sc114	 0.836744	 0.252615	 0.000000 
Sc115	 0.813333	 0.339987	 0.500000 
Sc116	 0.957485	 0.284967	 0.000000 
Sc117	 0.934074	 0.372340	 0.500000 
Dy118	 0.917684	 0.192025	 0.017200 
Dy119	 0.997286	 0.377909	 0.982800 
Dy120	 0.894272	 0.279398	 0.482800 
Sc121	 0.789921	 0.427360	 0.000000 
Sc122	 0.766510	 0.514733	 0.500000 
Sc123	 0.910662	 0.459713	 0.000000 
Sc124	 0.887251	 0.547085	 0.500000 
Dy125	 0.870861	 0.366771	 0.017200 
Dy126	 0.973875	 0.465282	 0.517200 
Dy127	 0.950463	 0.552654	 0.982800 
Dy128	 0.847450	 0.454143	 0.482800 
Sc129	 0.743098	 0.602106	 0.000000 
Sc130	 0.719687	 0.689478	 0.500000 
Sc131	 0.863839	 0.634458	 0.000000 
Sc132	 0.840428	 0.721831	 0.500000 
Dy133	 0.824038	 0.541516	 0.017200 
Dy134	 0.927052	 0.640027	 0.517200 
Dy135	 0.903640	 0.727400	 0.982800 
Dy136	 0.800627	 0.628889	 0.482800 
Sc137	 0.696276	 0.776851	 0.000000 
Sc138	 0.672864	 0.864224	 0.500000 
Sc139	 0.817016	 0.809203	 0.000000 
Sc140	 0.793605	 0.896576	 0.500000 
Dy141	 0.777215	 0.716261	 0.017200 
Dy142	 0.880229	 0.814772	 0.517200 
Dy143	 0.856817	 0.902145	 0.982800 
Dy144	 0.753804	 0.803634	 0.482800 
Sc145	 0.649453	 0.951596	 0.000000 
Sc146	 0.860156	 0.165242	 0.500000 
Sc147	 0.770193	 0.983949	 0.000000 
Sc148	 0.980896	 0.197594	 0.500000 
Dy149	 0.730392	 0.891007	 0.017200 
Dy150	 0.833406	 0.989518	 0.517200 
Dy151	 0.706981	 0.978380	 0.482800 
#                 ---end-of-data-block---
