data_C:\Users\admin\Documents\atomsegmentation_bupt_fullsuite_3\misc\12047.cif
_cell_length_a               31.652800
_cell_length_b               31.652800
_cell_length_c               5.449400
_cell_angle_alpha          90.000000
_cell_angle_beta           90.000000
_cell_angle_gamma          90.000000
_symmetry_cell_setting          Triclinic
_symmetry_space_group_name_H-M 'P 1' 
loop_
_atom_site_label
_atom_site_fract_x
_atom_site_fract_y
_atom_site_fract_z
Sc1	 0.139246	 0.047278	 0.000000 
Sc2	 0.115834	 0.134651	 0.500000 
Sc3	 0.259987	 0.079631	 0.000000 
Sc4	 0.236575	 0.167003	 0.500000 
Dy5	 0.323199	 0.085200	 0.517200 
Dy6	 0.299788	 0.172573	 0.982800 
Dy7	 0.196774	 0.074062	 0.482800 
Sc8	 0.092423	 0.222024	 0.000000 
Sc9	 0.069012	 0.309396	 0.500000 
Sc10	 0.213164	 0.254376	 0.000000 
Sc11	 0.189752	 0.341749	 0.500000 
Dy12	 0.173363	 0.161434	 0.017200 
Dy13	 0.276376	 0.259945	 0.517200 
Dy14	 0.252965	 0.347318	 0.982800 
Dy15	 0.149951	 0.248807	 0.482800 
Sc16	 0.045600	 0.396769	 0.000000 
Sc17	 0.022189	 0.484142	 0.500000 
Sc18	 0.166341	 0.429121	 0.000000 
Sc19	 0.142929	 0.516494	 0.500000 
Dy20	 0.126540	 0.336180	 0.017200 
Dy21	 0.229553	 0.434691	 0.517200 
Dy22	 0.206142	 0.522063	 0.982800 
Dy23	 0.103128	 0.423552	 0.482800 
Sc24	 0.119518	 0.603867	 0.000000 
Sc25	 0.096107	 0.691240	 0.500000 
Dy26	 0.079717	 0.510925	 0.017200 
Dy27	 0.182730	 0.609436	 0.517200 
Dy28	 0.159319	 0.696809	 0.982800 
Dy29	 0.056305	 0.598298	 0.482800 
Sc30	 0.072695	 0.778612	 0.000000 
Dy31	 0.032894	 0.685670	 0.017200 
Dy32	 0.135908	 0.784181	 0.517200 
Dy33	 0.009483	 0.773043	 0.482800 
Sc34	 0.380727	 0.111983	 0.000000 
Sc35	 0.357316	 0.199356	 0.500000 
Sc36	 0.501468	 0.144335	 0.000000 
Sc37	 0.478057	 0.231708	 0.500000 
Dy38	 0.461667	 0.051394	 0.017200 
Dy39	 0.564681	 0.149905	 0.517200 
Dy40	 0.541269	 0.237277	 0.982800 
Dy41	 0.438256	 0.138766	 0.482800 
Sc42	 0.333904	 0.286728	 0.000000 
Sc43	 0.310493	 0.374101	 0.500000 
Sc44	 0.454645	 0.319081	 0.000000 
Sc45	 0.431234	 0.406454	 0.500000 
Dy46	 0.414844	 0.226139	 0.017200 
Dy47	 0.517858	 0.324650	 0.517200 
Dy48	 0.494446	 0.412023	 0.982800 
Dy49	 0.391433	 0.313512	 0.482800 
Sc50	 0.287082	 0.461474	 0.000000 
Sc51	 0.263670	 0.548847	 0.500000 
Sc52	 0.407822	 0.493826	 0.000000 
Sc53	 0.384411	 0.581199	 0.500000 
Dy54	 0.368021	 0.400884	 0.017200 
Dy55	 0.471035	 0.499395	 0.517200 
Dy56	 0.447623	 0.586768	 0.982800 
Dy57	 0.344610	 0.488257	 0.482800 
Sc58	 0.240259	 0.636219	 0.000000 
Sc59	 0.216847	 0.723592	 0.500000 
Sc60	 0.360999	 0.668572	 0.000000 
Sc61	 0.337588	 0.755944	 0.500000 
Dy62	 0.321198	 0.575630	 0.017200 
Dy63	 0.424212	 0.674141	 0.517200 
Dy64	 0.400800	 0.761513	 0.982800 
Dy65	 0.297787	 0.663002	 0.482800 
Sc66	 0.193436	 0.810965	 0.000000 
Sc67	 0.404139	 0.024610	 0.500000 
Sc68	 0.314177	 0.843317	 0.000000 
Sc69	 0.524880	 0.056963	 0.500000 
Dy70	 0.274375	 0.750375	 0.017200 
Dy71	 0.377389	 0.848886	 0.517200 
Dy72	 0.588092	 0.062532	 0.982800 
Dy73	 0.250964	 0.837748	 0.482800 
Sc74	 0.622209	 0.176688	 0.000000 
Sc75	 0.598797	 0.264061	 0.500000 
Sc76	 0.742950	 0.209040	 0.000000 
Sc77	 0.719538	 0.296413	 0.500000 
Dy78	 0.703148	 0.116098	 0.017200 
Dy79	 0.806162	 0.214609	 0.517200 
Dy80	 0.782751	 0.301982	 0.982800 
Dy81	 0.679737	 0.203471	 0.482800 
Sc82	 0.575386	 0.351433	 0.000000 
Sc83	 0.551974	 0.438806	 0.500000 
Sc84	 0.696127	 0.383786	 0.000000 
Sc85	 0.672715	 0.471158	 0.500000 
Dy86	 0.656326	 0.290844	 0.017200 
Dy87	 0.759339	 0.389355	 0.517200 
Dy88	 0.735928	 0.476727	 0.982800 
Dy89	 0.632914	 0.378216	 0.482800 
Sc90	 0.528563	 0.526179	 0.000000 
Sc91	 0.505152	 0.613551	 0.500000 
Sc92	 0.649304	 0.558531	 0.000000 
Sc93	 0.625892	 0.645904	 0.500000 
Dy94	 0.609503	 0.465589	 0.017200 
Dy95	 0.712516	 0.564100	 0.517200 
Dy96	 0.689105	 0.651473	 0.982800 
Dy97	 0.586091	 0.552962	 0.482800 
Sc98	 0.481740	 0.700924	 0.000000 
Sc99	 0.458329	 0.788297	 0.500000 
Sc100	 0.602481	 0.733276	 0.000000 
Sc101	 0.579069	 0.820649	 0.500000 
Dy102	 0.562680	 0.640335	 0.017200 
Dy103	 0.665693	 0.738846	 0.517200 
Dy104	 0.642282	 0.826218	 0.982800 
Dy105	 0.539268	 0.727707	 0.482800 
Sc106	 0.434917	 0.875669	 0.000000 
Sc107	 0.645620	 0.089315	 0.500000 
Sc108	 0.555658	 0.908022	 0.000000 
Sc109	 0.766361	 0.121667	 0.500000 
Dy110	 0.515857	 0.815080	 0.017200 
Dy111	 0.618871	 0.913591	 0.517200 
Dy112	 0.829573	 0.127237	 0.982800 
Dy113	 0.492445	 0.902453	 0.482800 
Sc114	 0.863690	 0.241393	 0.000000 
Sc115	 0.840279	 0.328765	 0.500000 
Sc116	 0.984431	 0.273745	 0.000000 
Sc117	 0.961020	 0.361118	 0.500000 
Dy118	 0.944630	 0.180803	 0.017200 
Dy119	 0.921218	 0.268176	 0.482800 
Sc120	 0.816867	 0.416138	 0.000000 
Sc121	 0.793456	 0.503511	 0.500000 
Sc122	 0.937608	 0.448490	 0.000000 
Sc123	 0.914197	 0.535863	 0.500000 
Dy124	 0.897807	 0.355549	 0.017200 
Dy125	 0.977409	 0.541432	 0.982800 
Dy126	 0.874396	 0.442921	 0.482800 
Sc127	 0.770044	 0.590883	 0.000000 
Sc128	 0.746633	 0.678256	 0.500000 
Sc129	 0.890785	 0.623236	 0.000000 
Sc130	 0.867374	 0.710608	 0.500000 
Dy131	 0.850984	 0.530294	 0.017200 
Dy132	 0.953998	 0.628805	 0.517200 
Dy133	 0.930586	 0.716178	 0.982800 
Dy134	 0.827573	 0.617667	 0.482800 
Sc135	 0.723222	 0.765629	 0.000000 
Sc136	 0.699810	 0.853001	 0.500000 
Sc137	 0.843962	 0.797981	 0.000000 
Sc138	 0.820551	 0.885354	 0.500000 
Dy139	 0.804161	 0.705039	 0.017200 
Dy140	 0.907175	 0.803550	 0.517200 
Dy141	 0.883763	 0.890923	 0.982800 
Dy142	 0.780750	 0.792412	 0.482800 
Sc143	 0.676399	 0.940374	 0.000000 
Sc144	 0.887102	 0.154020	 0.500000 
Sc145	 0.797139	 0.972727	 0.000000 
Dy146	 0.757338	 0.879785	 0.017200 
Dy147	 0.860352	 0.978296	 0.517200 
Dy148	 0.733927	 0.967157	 0.482800 
#                 ---end-of-data-block---
