data_C:\Users\admin\Documents\atomsegmentation_bupt_fullsuite_3\misc\12057.cif
_cell_length_a               31.652800
_cell_length_b               31.652800
_cell_length_c               5.449400
_cell_angle_alpha          90.000000
_cell_angle_beta           90.000000
_cell_angle_gamma          90.000000
_symmetry_cell_setting          Triclinic
_symmetry_space_group_name_H-M 'P 1' 
loop_
_atom_site_label
_atom_site_fract_x
_atom_site_fract_y
_atom_site_fract_z
Sc1	 0.435285	 0.079522	 0.000000 
Sc2	 0.390058	 0.157858	 0.500000 
Sc3	 0.543539	 0.142022	 0.000000 
Sc4	 0.498311	 0.220358	 0.500000 
Dy5	 0.529149	 0.041946	 0.017200 
Dy6	 0.603156	 0.163762	 0.517200 
Dy7	 0.557928	 0.242098	 0.982800 
Dy8	 0.483921	 0.120282	 0.482800 
Sc9	 0.344830	 0.236194	 0.000000 
Sc10	 0.299603	 0.314531	 0.500000 
Sc11	 0.453084	 0.298694	 0.000000 
Sc12	 0.407856	 0.377031	 0.500000 
Dy13	 0.438694	 0.198618	 0.017200 
Dy14	 0.512701	 0.320434	 0.517200 
Dy15	 0.467473	 0.398771	 0.982800 
Dy16	 0.393466	 0.276954	 0.482800 
Sc17	 0.254376	 0.392867	 0.000000 
Sc18	 0.209148	 0.471203	 0.500000 
Sc19	 0.362629	 0.455367	 0.000000 
Sc20	 0.317401	 0.533703	 0.500000 
Dy21	 0.348239	 0.355291	 0.017200 
Dy22	 0.422246	 0.477107	 0.517200 
Dy23	 0.377019	 0.555443	 0.982800 
Dy24	 0.303012	 0.433627	 0.482800 
Sc25	 0.163921	 0.549539	 0.000000 
Sc26	 0.118693	 0.627875	 0.500000 
Sc27	 0.272174	 0.612039	 0.000000 
Sc28	 0.226946	 0.690375	 0.500000 
Dy29	 0.257784	 0.511963	 0.017200 
Dy30	 0.331791	 0.633779	 0.517200 
Dy31	 0.286564	 0.712115	 0.982800 
Dy32	 0.212557	 0.590299	 0.482800 
Sc33	 0.073466	 0.706212	 0.000000 
Sc34	 0.480513	 0.001186	 0.500000 
Sc35	 0.181719	 0.768712	 0.000000 
Sc36	 0.588766	 0.063686	 0.500000 
Dy37	 0.167329	 0.668636	 0.017200 
Dy38	 0.241336	 0.790452	 0.517200 
Dy39	 0.648383	 0.085426	 0.982800 
Dy40	 0.122102	 0.746972	 0.482800 
Sc41	 0.651792	 0.204522	 0.000000 
Sc42	 0.606564	 0.282858	 0.500000 
Sc43	 0.760045	 0.267022	 0.000000 
Sc44	 0.714817	 0.345358	 0.500000 
Dy45	 0.745655	 0.166946	 0.017200 
Dy46	 0.819662	 0.288762	 0.517200 
Dy47	 0.774435	 0.367098	 0.982800 
Dy48	 0.700428	 0.245282	 0.482800 
Sc49	 0.561337	 0.361194	 0.000000 
Sc50	 0.516109	 0.439531	 0.500000 
Sc51	 0.669590	 0.423694	 0.000000 
Sc52	 0.624363	 0.502031	 0.500000 
Dy53	 0.655200	 0.323618	 0.017200 
Dy54	 0.729207	 0.445434	 0.517200 
Dy55	 0.683980	 0.523771	 0.982800 
Dy56	 0.609973	 0.401954	 0.482800 
Sc57	 0.470882	 0.517867	 0.000000 
Sc58	 0.425655	 0.596203	 0.500000 
Sc59	 0.579135	 0.580367	 0.000000 
Sc60	 0.533908	 0.658703	 0.500000 
Dy61	 0.564745	 0.480291	 0.017200 
Dy62	 0.638752	 0.602107	 0.517200 
Dy63	 0.593525	 0.680443	 0.982800 
Dy64	 0.519518	 0.558627	 0.482800 
Sc65	 0.380427	 0.674539	 0.000000 
Sc66	 0.335200	 0.752875	 0.500000 
Sc67	 0.488680	 0.737039	 0.000000 
Sc68	 0.443453	 0.815375	 0.500000 
Dy69	 0.474291	 0.636963	 0.017200 
Dy70	 0.548297	 0.758779	 0.517200 
Dy71	 0.503070	 0.837115	 0.982800 
Dy72	 0.429063	 0.715299	 0.482800 
Sc73	 0.289972	 0.831212	 0.000000 
Sc74	 0.697019	 0.126186	 0.500000 
Sc75	 0.398225	 0.893712	 0.000000 
Sc76	 0.805272	 0.188686	 0.500000 
Dy77	 0.383836	 0.793636	 0.017200 
Dy78	 0.457843	 0.915452	 0.517200 
Dy79	 0.864890	 0.210426	 0.982800 
Dy80	 0.338608	 0.871972	 0.482800 
Sc81	 0.868298	 0.329522	 0.000000 
Sc82	 0.823071	 0.407858	 0.500000 
Sc83	 0.976551	 0.392022	 0.000000 
Sc84	 0.931324	 0.470358	 0.500000 
Dy85	 0.962161	 0.291946	 0.017200 
Dy86	 0.990941	 0.492098	 0.982800 
Dy87	 0.916934	 0.370282	 0.482800 
Sc88	 0.777843	 0.486194	 0.000000 
Sc89	 0.732616	 0.564531	 0.500000 
Sc90	 0.886096	 0.548694	 0.000000 
Sc91	 0.840869	 0.627031	 0.500000 
Dy92	 0.871707	 0.448618	 0.017200 
Dy93	 0.945714	 0.570434	 0.517200 
Dy94	 0.900486	 0.648771	 0.982800 
Dy95	 0.826479	 0.526954	 0.482800 
Sc96	 0.687388	 0.642867	 0.000000 
Sc97	 0.642161	 0.721203	 0.500000 
Sc98	 0.795641	 0.705367	 0.000000 
Sc99	 0.750414	 0.783703	 0.500000 
Dy100	 0.781252	 0.605291	 0.017200 
Dy101	 0.855259	 0.727107	 0.517200 
Dy102	 0.810031	 0.805443	 0.982800 
Dy103	 0.736024	 0.683627	 0.482800 
Sc104	 0.596933	 0.799539	 0.000000 
Sc105	 0.551706	 0.877875	 0.500000 
Sc106	 0.705187	 0.862039	 0.000000 
Sc107	 0.659959	 0.940375	 0.500000 
Dy108	 0.690797	 0.761963	 0.017200 
Dy109	 0.764804	 0.883779	 0.517200 
Dy110	 0.719576	 0.962115	 0.982800 
Dy111	 0.645569	 0.840299	 0.482800 
Sc112	 0.506479	 0.956212	 0.000000 
Sc113	 0.913526	 0.251186	 0.500000 
Dy114	 0.600342	 0.918636	 0.017200 
Dy115	 0.555115	 0.996972	 0.482800 
Sc116	 0.327032	 0.017022	 0.000000 
Sc117	 0.281805	 0.095358	 0.500000 
Dy118	 0.386649	 0.038762	 0.517200 
Dy119	 0.341422	 0.117098	 0.982800 
Sc120	 0.994350	 0.611194	 0.000000 
Sc121	 0.949122	 0.689531	 0.500000 
Sc122	 0.236577	 0.173694	 0.000000 
Sc123	 0.191350	 0.252031	 0.500000 
Dy124	 0.222188	 0.073618	 0.017200 
Dy125	 0.296195	 0.195434	 0.517200 
Dy126	 0.250967	 0.273771	 0.982800 
Dy127	 0.176960	 0.151954	 0.482800 
Sc128	 0.903895	 0.767867	 0.000000 
Sc129	 0.858667	 0.846203	 0.500000 
Sc130	 0.146122	 0.330367	 0.000000 
Sc131	 0.100895	 0.408703	 0.500000 
Dy132	 0.131733	 0.230291	 0.017200 
Dy133	 0.205740	 0.352107	 0.517200 
Dy134	 0.160512	 0.430443	 0.982800 
Dy135	 0.086505	 0.308627	 0.482800 
Sc136	 0.813440	 0.924539	 0.000000 
Sc137	 0.055668	 0.487039	 0.000000 
Sc138	 0.010440	 0.565375	 0.500000 
Dy139	 0.041278	 0.386963	 0.017200 
Dy140	 0.115285	 0.508779	 0.517200 
Dy141	 0.070057	 0.587115	 0.982800 
Dy142	 0.024830	 0.665452	 0.517200 
#                 ---end-of-data-block---
