data_C:\Users\admin\Documents\atomsegmentation_bupt_fullsuite_3\misc\12051.cif
_cell_length_a               31.652800
_cell_length_b               31.652800
_cell_length_c               5.449400
_cell_angle_alpha          90.000000
_cell_angle_beta           90.000000
_cell_angle_gamma          90.000000
_symmetry_cell_setting          Triclinic
_symmetry_space_group_name_H-M 'P 1' 
loop_
_atom_site_label
_atom_site_fract_x
_atom_site_fract_y
_atom_site_fract_z
Sc1	 0.160590	 0.129002	 0.000000 
Sc2	 0.137178	 0.216375	 0.500000 
Sc3	 0.281331	 0.161355	 0.000000 
Sc4	 0.257919	 0.248727	 0.500000 
Dy5	 0.241529	 0.068413	 0.017200 
Dy6	 0.344543	 0.166924	 0.517200 
Dy7	 0.321132	 0.254296	 0.982800 
Dy8	 0.218118	 0.155785	 0.482800 
Sc9	 0.113767	 0.303748	 0.000000 
Sc10	 0.090355	 0.391120	 0.500000 
Sc11	 0.234508	 0.336100	 0.000000 
Sc12	 0.211096	 0.423473	 0.500000 
Dy13	 0.194707	 0.243158	 0.017200 
Dy14	 0.297720	 0.341669	 0.517200 
Dy15	 0.274309	 0.429042	 0.982800 
Dy16	 0.171295	 0.330531	 0.482800 
Sc17	 0.066944	 0.478493	 0.000000 
Sc18	 0.043533	 0.565866	 0.500000 
Sc19	 0.187685	 0.510845	 0.000000 
Sc20	 0.164273	 0.598218	 0.500000 
Dy21	 0.147884	 0.417904	 0.017200 
Dy22	 0.250897	 0.516415	 0.517200 
Dy23	 0.227486	 0.603787	 0.982800 
Dy24	 0.124472	 0.505276	 0.482800 
Sc25	 0.020121	 0.653238	 0.000000 
Sc26	 0.140862	 0.685591	 0.000000 
Sc27	 0.117450	 0.772964	 0.500000 
Dy28	 0.101061	 0.592649	 0.017200 
Dy29	 0.204074	 0.691160	 0.517200 
Dy30	 0.180663	 0.778533	 0.982800 
Dy31	 0.077649	 0.680022	 0.482800 
Sc32	 0.184001	 0.041630	 0.500000 
Sc33	 0.304742	 0.073982	 0.500000 
Dy34	 0.054238	 0.767394	 0.017200 
Dy35	 0.157251	 0.865905	 0.517200 
Dy36	 0.367954	 0.079551	 0.982800 
Sc37	 0.402071	 0.193707	 0.000000 
Sc38	 0.378660	 0.281080	 0.500000 
Sc39	 0.522812	 0.226059	 0.000000 
Sc40	 0.499401	 0.313432	 0.500000 
Dy41	 0.483011	 0.133118	 0.017200 
Dy42	 0.586024	 0.231629	 0.517200 
Dy43	 0.562613	 0.319001	 0.982800 
Dy44	 0.459599	 0.220490	 0.482800 
Sc45	 0.355248	 0.368452	 0.000000 
Sc46	 0.331837	 0.455825	 0.500000 
Sc47	 0.475989	 0.400805	 0.000000 
Sc48	 0.452578	 0.488177	 0.500000 
Dy49	 0.436188	 0.307863	 0.017200 
Dy50	 0.539202	 0.406374	 0.517200 
Dy51	 0.515790	 0.493747	 0.982800 
Dy52	 0.412777	 0.395236	 0.482800 
Sc53	 0.308425	 0.543198	 0.000000 
Sc54	 0.285014	 0.630571	 0.500000 
Sc55	 0.429166	 0.575550	 0.000000 
Sc56	 0.405755	 0.662923	 0.500000 
Dy57	 0.389365	 0.482608	 0.017200 
Dy58	 0.492379	 0.581119	 0.517200 
Dy59	 0.468967	 0.668492	 0.982800 
Dy60	 0.365954	 0.569981	 0.482800 
Sc61	 0.261603	 0.717943	 0.000000 
Sc62	 0.238191	 0.805316	 0.500000 
Sc63	 0.382343	 0.750296	 0.000000 
Sc64	 0.358932	 0.837668	 0.500000 
Dy65	 0.342542	 0.657354	 0.017200 
Dy66	 0.445556	 0.755865	 0.517200 
Dy67	 0.422144	 0.843237	 0.982800 
Dy68	 0.319131	 0.744726	 0.482800 
Sc69	 0.448894	 0.018962	 0.000000 
Sc70	 0.425483	 0.106334	 0.500000 
Sc71	 0.569635	 0.051314	 0.000000 
Sc72	 0.546223	 0.138687	 0.500000 
Dy73	 0.295719	 0.832099	 0.017200 
Dy74	 0.398733	 0.930610	 0.517200 
Dy75	 0.609436	 0.144256	 0.982800 
Dy76	 0.506422	 0.045745	 0.482800 
Sc77	 0.643553	 0.258412	 0.000000 
Sc78	 0.620141	 0.345784	 0.500000 
Sc79	 0.764293	 0.290764	 0.000000 
Sc80	 0.740882	 0.378137	 0.500000 
Dy81	 0.724492	 0.197822	 0.017200 
Dy82	 0.827506	 0.296333	 0.517200 
Dy83	 0.804095	 0.383706	 0.982800 
Dy84	 0.701081	 0.285195	 0.482800 
Sc85	 0.596730	 0.433157	 0.000000 
Sc86	 0.573318	 0.520530	 0.500000 
Sc87	 0.717471	 0.465510	 0.000000 
Sc88	 0.694059	 0.552882	 0.500000 
Dy89	 0.677669	 0.372568	 0.017200 
Dy90	 0.780683	 0.471079	 0.517200 
Dy91	 0.757272	 0.558451	 0.982800 
Dy92	 0.654258	 0.459940	 0.482800 
Sc93	 0.549907	 0.607903	 0.000000 
Sc94	 0.526495	 0.695275	 0.500000 
Sc95	 0.670648	 0.640255	 0.000000 
Sc96	 0.647236	 0.727628	 0.500000 
Dy97	 0.630847	 0.547313	 0.017200 
Dy98	 0.733860	 0.645824	 0.517200 
Dy99	 0.710449	 0.733197	 0.982800 
Dy100	 0.607435	 0.634686	 0.482800 
Sc101	 0.503084	 0.782648	 0.000000 
Sc102	 0.479673	 0.870021	 0.500000 
Sc103	 0.623825	 0.815000	 0.000000 
Sc104	 0.600413	 0.902373	 0.500000 
Dy105	 0.584024	 0.722059	 0.017200 
Dy106	 0.687037	 0.820569	 0.517200 
Dy107	 0.663626	 0.907942	 0.982800 
Dy108	 0.560612	 0.809431	 0.482800 
Sc109	 0.690376	 0.083666	 0.000000 
Sc110	 0.666964	 0.171039	 0.500000 
Sc111	 0.811116	 0.116019	 0.000000 
Sc112	 0.787705	 0.203391	 0.500000 
Dy113	 0.537201	 0.896804	 0.017200 
Dy114	 0.640214	 0.995315	 0.517200 
Dy115	 0.850917	 0.208961	 0.982800 
Dy116	 0.747904	 0.110450	 0.482800 
Sc117	 0.885034	 0.323117	 0.000000 
Sc118	 0.861623	 0.410489	 0.500000 
Sc119	 0.982363	 0.442842	 0.500000 
Dy120	 0.965974	 0.262527	 0.017200 
Dy121	 0.103062	 0.102219	 0.517200 
Dy122	 0.079650	 0.189592	 0.982800 
Dy123	 0.942562	 0.349900	 0.482800 
Sc124	 0.838211	 0.497862	 0.000000 
Sc125	 0.814800	 0.585235	 0.500000 
Sc126	 0.958952	 0.530214	 0.000000 
Sc127	 0.935541	 0.617587	 0.500000 
Dy128	 0.919151	 0.437272	 0.017200 
Dy129	 0.056239	 0.276964	 0.517200 
Dy130	 0.032827	 0.364337	 0.982800 
Dy131	 0.895739	 0.524645	 0.482800 
Sc132	 0.791388	 0.672607	 0.000000 
Sc133	 0.767977	 0.759980	 0.500000 
Sc134	 0.912129	 0.704960	 0.000000 
Sc135	 0.888718	 0.792332	 0.500000 
Dy136	 0.872328	 0.612018	 0.017200 
Dy137	 0.009416	 0.451710	 0.517200 
Dy138	 0.848917	 0.699391	 0.482800 
Sc139	 0.744566	 0.847353	 0.000000 
Sc140	 0.721154	 0.934725	 0.500000 
Sc141	 0.865306	 0.879705	 0.000000 
Sc142	 0.841895	 0.967078	 0.500000 
Dy143	 0.825505	 0.786763	 0.017200 
Dy144	 0.802094	 0.874136	 0.482800 
Sc145	 0.931857	 0.148371	 0.000000 
Sc146	 0.908446	 0.235744	 0.500000 
Dy147	 0.778682	 0.961509	 0.017200 
Dy148	 0.126473	 0.014846	 0.982800 
Dy149	 0.989385	 0.175154	 0.482800 
#                 ---end-of-data-block---
