data_C:\Users\admin\Documents\atomsegmentation_bupt_fullsuite_3\misc\12064.cif
_cell_length_a               31.652800
_cell_length_b               31.652800
_cell_length_c               5.449400
_cell_angle_alpha          90.000000
_cell_angle_beta           90.000000
_cell_angle_gamma          90.000000
_symmetry_cell_setting          Triclinic
_symmetry_space_group_name_H-M 'P 1' 
loop_
_atom_site_label
_atom_site_fract_x
_atom_site_fract_y
_atom_site_fract_z
Sc1	 0.457579	 0.022445	 0.000000 
Sc2	 0.393618	 0.086406	 0.500000 
Dy3	 0.509539	 0.058874	 0.517200 
Dy4	 0.445577	 0.122835	 0.982800 
Sc5	 0.241269	 0.061979	 0.000000 
Sc6	 0.177307	 0.125940	 0.500000 
Sc7	 0.329657	 0.150367	 0.000000 
Sc8	 0.265696	 0.214329	 0.500000 
Dy9	 0.341659	 0.049977	 0.017200 
Dy10	 0.381616	 0.186797	 0.517200 
Dy11	 0.317655	 0.250758	 0.982800 
Dy12	 0.277698	 0.113938	 0.482800 
Sc13	 0.113346	 0.189902	 0.000000 
Sc14	 0.049385	 0.253863	 0.500000 
Sc15	 0.201734	 0.278290	 0.000000 
Sc16	 0.137773	 0.342251	 0.500000 
Dy17	 0.213737	 0.177899	 0.017200 
Dy18	 0.253694	 0.314719	 0.517200 
Dy19	 0.189732	 0.378680	 0.982800 
Dy20	 0.149775	 0.241861	 0.482800 
Sc21	 0.073812	 0.406212	 0.000000 
Sc22	 0.009851	 0.470174	 0.500000 
Dy23	 0.085814	 0.305822	 0.017200 
Dy24	 0.125771	 0.442642	 0.517200 
Dy25	 0.061810	 0.506603	 0.982800 
Dy26	 0.021853	 0.369783	 0.482800 
Sc27	 0.545968	 0.110833	 0.000000 
Sc28	 0.482007	 0.174794	 0.500000 
Sc29	 0.634356	 0.199222	 0.000000 
Sc30	 0.570395	 0.263183	 0.500000 
Dy31	 0.646358	 0.098831	 0.017200 
Dy32	 0.686315	 0.235651	 0.517200 
Dy33	 0.622354	 0.299612	 0.982800 
Dy34	 0.582397	 0.162792	 0.482800 
Sc35	 0.418045	 0.238756	 0.000000 
Sc36	 0.354084	 0.302717	 0.500000 
Sc37	 0.506434	 0.327144	 0.000000 
Sc38	 0.442472	 0.391105	 0.500000 
Dy39	 0.518436	 0.226754	 0.017200 
Dy40	 0.558393	 0.363573	 0.517200 
Dy41	 0.494431	 0.427535	 0.982800 
Dy42	 0.454475	 0.290715	 0.482800 
Sc43	 0.290123	 0.366678	 0.000000 
Sc44	 0.226162	 0.430639	 0.500000 
Sc45	 0.378511	 0.455067	 0.000000 
Sc46	 0.314550	 0.519028	 0.500000 
Dy47	 0.390513	 0.354676	 0.017200 
Dy48	 0.430470	 0.491496	 0.517200 
Dy49	 0.366509	 0.555457	 0.982800 
Dy50	 0.326552	 0.418637	 0.482800 
Sc51	 0.162200	 0.494601	 0.000000 
Sc52	 0.098239	 0.558562	 0.500000 
Sc53	 0.250589	 0.582989	 0.000000 
Sc54	 0.186627	 0.646950	 0.500000 
Dy55	 0.262591	 0.482599	 0.017200 
Dy56	 0.302548	 0.619418	 0.517200 
Dy57	 0.238586	 0.683380	 0.982800 
Dy58	 0.198630	 0.546560	 0.482800 
Sc59	 0.034278	 0.622523	 0.000000 
Sc60	 0.609929	 0.046872	 0.500000 
Sc61	 0.122666	 0.710912	 0.000000 
Sc62	 0.698317	 0.135260	 0.500000 
Dy63	 0.134668	 0.610521	 0.017200 
Dy64	 0.174625	 0.747341	 0.517200 
Dy65	 0.750277	 0.171690	 0.982800 
Dy66	 0.070707	 0.674482	 0.482800 
Sc67	 0.722745	 0.287610	 0.000000 
Sc68	 0.658783	 0.351571	 0.500000 
Sc69	 0.811133	 0.375998	 0.000000 
Sc70	 0.747172	 0.439959	 0.500000 
Dy71	 0.823135	 0.275608	 0.017200 
Dy72	 0.863092	 0.412428	 0.517200 
Dy73	 0.799131	 0.476389	 0.982800 
Dy74	 0.759174	 0.339569	 0.482800 
Sc75	 0.594822	 0.415532	 0.000000 
Sc76	 0.530861	 0.479494	 0.500000 
Sc77	 0.683210	 0.503921	 0.000000 
Sc78	 0.619249	 0.567882	 0.500000 
Dy79	 0.695213	 0.403530	 0.017200 
Dy80	 0.735169	 0.540350	 0.517200 
Dy81	 0.671208	 0.604311	 0.982800 
Dy82	 0.631251	 0.467491	 0.482800 
Sc83	 0.466900	 0.543455	 0.000000 
Sc84	 0.402938	 0.607416	 0.500000 
Sc85	 0.555288	 0.631843	 0.000000 
Sc86	 0.491327	 0.695805	 0.500000 
Dy87	 0.567290	 0.531453	 0.017200 
Dy88	 0.607247	 0.668273	 0.517200 
Dy89	 0.543286	 0.732234	 0.982800 
Dy90	 0.503329	 0.595414	 0.482800 
Sc91	 0.338977	 0.671377	 0.000000 
Sc92	 0.275016	 0.735339	 0.500000 
Sc93	 0.427365	 0.759766	 0.000000 
Sc94	 0.363404	 0.823727	 0.500000 
Dy95	 0.439368	 0.659375	 0.017200 
Dy96	 0.479324	 0.796195	 0.517200 
Dy97	 0.415363	 0.860156	 0.982800 
Dy98	 0.375406	 0.723336	 0.482800 
Sc99	 0.211055	 0.799300	 0.000000 
Sc100	 0.786706	 0.223649	 0.500000 
Sc101	 0.299443	 0.887688	 0.000000 
Sc102	 0.875094	 0.312037	 0.500000 
Dy103	 0.311445	 0.787298	 0.017200 
Dy104	 0.351402	 0.924118	 0.517200 
Dy105	 0.927053	 0.348466	 0.982800 
Dy106	 0.247484	 0.851259	 0.482800 
Sc107	 0.899521	 0.464387	 0.000000 
Sc108	 0.835560	 0.528348	 0.500000 
Sc109	 0.987910	 0.552775	 0.000000 
Sc110	 0.923948	 0.616736	 0.500000 
Dy111	 0.999912	 0.452384	 0.017200 
Dy112	 0.975907	 0.653165	 0.982800 
Dy113	 0.935951	 0.516346	 0.482800 
Sc114	 0.771599	 0.592309	 0.000000 
Sc115	 0.707637	 0.656270	 0.500000 
Sc116	 0.859987	 0.680697	 0.000000 
Sc117	 0.796026	 0.744659	 0.500000 
Dy118	 0.871989	 0.580307	 0.017200 
Dy119	 0.911946	 0.717127	 0.517200 
Dy120	 0.847985	 0.781088	 0.982800 
Dy121	 0.808028	 0.644268	 0.482800 
Sc122	 0.643676	 0.720232	 0.000000 
Sc123	 0.579715	 0.784193	 0.500000 
Sc124	 0.732065	 0.808620	 0.000000 
Sc125	 0.668103	 0.872581	 0.500000 
Dy126	 0.744067	 0.708229	 0.017200 
Dy127	 0.784024	 0.845049	 0.517200 
Dy128	 0.720062	 0.909010	 0.982800 
Dy129	 0.680105	 0.772191	 0.482800 
Sc130	 0.515754	 0.848154	 0.000000 
Sc131	 0.451792	 0.912115	 0.500000 
Sc132	 0.604142	 0.936542	 0.000000 
Dy133	 0.616144	 0.836152	 0.017200 
Dy134	 0.656101	 0.972972	 0.517200 
Dy135	 0.552183	 0.900113	 0.482800 
Sc136	 0.387831	 0.976077	 0.000000 
Sc137	 0.963482	 0.400425	 0.500000 
Dy138	 0.488222	 0.964074	 0.017200 
#                 ---end-of-data-block---
