data_C:\Users\admin\Documents\atomsegmentation_bupt_fullsuite_3\misc\12069.cif
_cell_length_a               31.652800
_cell_length_b               31.652800
_cell_length_c               5.449400
_cell_angle_alpha          90.000000
_cell_angle_beta           90.000000
_cell_angle_gamma          90.000000
_symmetry_cell_setting          Triclinic
_symmetry_space_group_name_H-M 'P 1' 
loop_
_atom_site_label
_atom_site_fract_x
_atom_site_fract_y
_atom_site_fract_z
Sc1	 0.461265	 0.181420	 0.000000 
Sc2	 0.397303	 0.245381	 0.500000 
Sc3	 0.549653	 0.269809	 0.000000 
Sc4	 0.485692	 0.333770	 0.500000 
Dy5	 0.561655	 0.169418	 0.017200 
Dy6	 0.601612	 0.306238	 0.517200 
Dy7	 0.537651	 0.370199	 0.982800 
Dy8	 0.497694	 0.233379	 0.482800 
Sc9	 0.333342	 0.309343	 0.000000 
Sc10	 0.269381	 0.373304	 0.500000 
Sc11	 0.421730	 0.397731	 0.000000 
Sc12	 0.357769	 0.461692	 0.500000 
Dy13	 0.433733	 0.297340	 0.017200 
Dy14	 0.473690	 0.434160	 0.517200 
Dy15	 0.409728	 0.498122	 0.982800 
Dy16	 0.369771	 0.361302	 0.482800 
Sc17	 0.205420	 0.437265	 0.000000 
Sc18	 0.141458	 0.501226	 0.500000 
Sc19	 0.293808	 0.525654	 0.000000 
Sc20	 0.229847	 0.589615	 0.500000 
Dy21	 0.305810	 0.425263	 0.017200 
Dy22	 0.345767	 0.562083	 0.517200 
Dy23	 0.281806	 0.626044	 0.982800 
Dy24	 0.241849	 0.489224	 0.482800 
Sc25	 0.077497	 0.565188	 0.000000 
Sc26	 0.013536	 0.629149	 0.500000 
Sc27	 0.165885	 0.653576	 0.000000 
Sc28	 0.101924	 0.717537	 0.500000 
Dy29	 0.177888	 0.553186	 0.017200 
Dy30	 0.217845	 0.690005	 0.517200 
Dy31	 0.153883	 0.753967	 0.982800 
Dy32	 0.113926	 0.617147	 0.482800 
Sc33	 0.589187	 0.053498	 0.000000 
Sc34	 0.525226	 0.117459	 0.500000 
Sc35	 0.677575	 0.141886	 0.000000 
Sc36	 0.613614	 0.205847	 0.500000 
Dy37	 0.049965	 0.681108	 0.017200 
Dy38	 0.729535	 0.178315	 0.517200 
Dy39	 0.665573	 0.242277	 0.982800 
Dy40	 0.625616	 0.105457	 0.482800 
Sc41	 0.638041	 0.358197	 0.000000 
Sc42	 0.574080	 0.422158	 0.500000 
Sc43	 0.726430	 0.446585	 0.000000 
Sc44	 0.662468	 0.510546	 0.500000 
Dy45	 0.738432	 0.346195	 0.017200 
Dy46	 0.778389	 0.483014	 0.517200 
Dy47	 0.714428	 0.546976	 0.982800 
Dy48	 0.674471	 0.410156	 0.482800 
Sc49	 0.510119	 0.486119	 0.000000 
Sc50	 0.446158	 0.550081	 0.500000 
Sc51	 0.598507	 0.574508	 0.000000 
Sc52	 0.534546	 0.638469	 0.500000 
Dy53	 0.610509	 0.474117	 0.017200 
Dy54	 0.650466	 0.610937	 0.517200 
Dy55	 0.586505	 0.674898	 0.982800 
Dy56	 0.546548	 0.538078	 0.482800 
Sc57	 0.382196	 0.614042	 0.000000 
Sc58	 0.318235	 0.678003	 0.500000 
Sc59	 0.470585	 0.702430	 0.000000 
Sc60	 0.406623	 0.766391	 0.500000 
Dy61	 0.482587	 0.602040	 0.017200 
Dy62	 0.522544	 0.738860	 0.517200 
Dy63	 0.458582	 0.802821	 0.982800 
Dy64	 0.418626	 0.666001	 0.482800 
Sc65	 0.254274	 0.741964	 0.000000 
Sc66	 0.190313	 0.805926	 0.500000 
Sc67	 0.342662	 0.830353	 0.000000 
Sc68	 0.278701	 0.894314	 0.500000 
Dy69	 0.354664	 0.729962	 0.017200 
Dy70	 0.394621	 0.866782	 0.517200 
Dy71	 0.330660	 0.930743	 0.982800 
Dy72	 0.290703	 0.793923	 0.482800 
Sc73	 0.765964	 0.230274	 0.000000 
Sc74	 0.702003	 0.294236	 0.500000 
Sc75	 0.854352	 0.318663	 0.000000 
Sc76	 0.790391	 0.382624	 0.500000 
Dy77	 0.226742	 0.857885	 0.017200 
Dy78	 0.906311	 0.355092	 0.517200 
Dy79	 0.842350	 0.419053	 0.982800 
Dy80	 0.802393	 0.282233	 0.482800 
Sc81	 0.814818	 0.534974	 0.000000 
Sc82	 0.750857	 0.598935	 0.500000 
Sc83	 0.903206	 0.623362	 0.000000 
Sc84	 0.839245	 0.687323	 0.500000 
Dy85	 0.915209	 0.522971	 0.017200 
Dy86	 0.955165	 0.659791	 0.517200 
Dy87	 0.891204	 0.723752	 0.982800 
Dy88	 0.851247	 0.586933	 0.482800 
Sc89	 0.686896	 0.662896	 0.000000 
Sc90	 0.622934	 0.726857	 0.500000 
Sc91	 0.775284	 0.751284	 0.000000 
Sc92	 0.711323	 0.815246	 0.500000 
Dy93	 0.787286	 0.650894	 0.017200 
Dy94	 0.827243	 0.787714	 0.517200 
Dy95	 0.763282	 0.851675	 0.982800 
Dy96	 0.723325	 0.714855	 0.482800 
Sc97	 0.558973	 0.790819	 0.000000 
Sc98	 0.495012	 0.854780	 0.500000 
Sc99	 0.647361	 0.879207	 0.000000 
Sc100	 0.583400	 0.943168	 0.500000 
Dy101	 0.659364	 0.778816	 0.017200 
Dy102	 0.699320	 0.915636	 0.517200 
Dy103	 0.635359	 0.979597	 0.982800 
Dy104	 0.595402	 0.842778	 0.482800 
Sc105	 0.431051	 0.918741	 0.000000 
Sc106	 0.367089	 0.982702	 0.500000 
Dy107	 0.531441	 0.906739	 0.017200 
Dy108	 0.467480	 0.970700	 0.482800 
Sc109	 0.942741	 0.407051	 0.000000 
Sc110	 0.878779	 0.471012	 0.500000 
Sc111	 0.967168	 0.559401	 0.500000 
Dy112	 0.979170	 0.459010	 0.482800 
Sc113	 0.991595	 0.711750	 0.000000 
Sc114	 0.927633	 0.775712	 0.500000 
Sc115	 0.372876	 0.093032	 0.000000 
Sc116	 0.308915	 0.156993	 0.500000 
Dy117	 0.424835	 0.129461	 0.517200 
Dy118	 0.360874	 0.193422	 0.982800 
Dy119	 0.320917	 0.056603	 0.482800 
Sc120	 0.863672	 0.839673	 0.000000 
Sc121	 0.799711	 0.903634	 0.500000 
Sc122	 0.244954	 0.220954	 0.000000 
Sc123	 0.180993	 0.284916	 0.500000 
Dy124	 0.256956	 0.120564	 0.017200 
Dy125	 0.296913	 0.257384	 0.517200 
Dy126	 0.232952	 0.321345	 0.982800 
Dy127	 0.192995	 0.184525	 0.482800 
Sc128	 0.735750	 0.967595	 0.000000 
Sc129	 0.117031	 0.348877	 0.000000 
Sc130	 0.053070	 0.412838	 0.500000 
Dy131	 0.129033	 0.248486	 0.017200 
Dy132	 0.168990	 0.385306	 0.517200 
Dy133	 0.105029	 0.449267	 0.982800 
Dy134	 0.065072	 0.312448	 0.482800 
Dy135	 0.001111	 0.376409	 0.017200 
Dy136	 0.041068	 0.513229	 0.517200 
Sc137	 0.436838	 0.029071	 0.500000 
Dy138	 0.552758	 0.001539	 0.517200 
Dy139	 0.488797	 0.065500	 0.982800 
#                 ---end-of-data-block---
