data_C:\Users\admin\Documents\atomsegmentation_bupt_fullsuite_3\misc\12060.cif
_cell_length_a               31.652800
_cell_length_b               31.652800
_cell_length_c               5.449400
_cell_angle_alpha          90.000000
_cell_angle_beta           90.000000
_cell_angle_gamma          90.000000
_symmetry_cell_setting          Triclinic
_symmetry_space_group_name_H-M 'P 1' 
loop_
_atom_site_label
_atom_site_fract_x
_atom_site_fract_y
_atom_site_fract_z
Sc1	 0.386679	 0.031302	 0.000000 
Sc2	 0.341452	 0.109638	 0.500000 
Sc3	 0.494933	 0.093802	 0.000000 
Sc4	 0.449705	 0.172138	 0.500000 
Dy5	 0.554550	 0.115542	 0.517200 
Dy6	 0.509322	 0.193878	 0.982800 
Dy7	 0.435315	 0.072062	 0.482800 
Sc8	 0.296224	 0.187974	 0.000000 
Sc9	 0.250997	 0.266311	 0.500000 
Sc10	 0.404478	 0.250474	 0.000000 
Sc11	 0.359250	 0.328811	 0.500000 
Dy12	 0.390088	 0.150398	 0.017200 
Dy13	 0.464095	 0.272214	 0.517200 
Dy14	 0.418867	 0.350551	 0.982800 
Dy15	 0.344860	 0.228735	 0.482800 
Sc16	 0.205770	 0.344647	 0.000000 
Sc17	 0.160542	 0.422983	 0.500000 
Sc18	 0.314023	 0.407147	 0.000000 
Sc19	 0.268795	 0.485483	 0.500000 
Dy20	 0.299633	 0.307071	 0.017200 
Dy21	 0.373640	 0.428887	 0.517200 
Dy22	 0.328413	 0.507223	 0.982800 
Dy23	 0.254406	 0.385407	 0.482800 
Sc24	 0.115315	 0.501319	 0.000000 
Sc25	 0.070087	 0.579656	 0.500000 
Sc26	 0.223568	 0.563819	 0.000000 
Sc27	 0.178340	 0.642156	 0.500000 
Dy28	 0.209178	 0.463743	 0.017200 
Dy29	 0.283185	 0.585559	 0.517200 
Dy30	 0.237958	 0.663896	 0.982800 
Dy31	 0.163951	 0.542079	 0.482800 
Sc32	 0.024860	 0.657992	 0.000000 
Sc33	 0.133113	 0.720492	 0.000000 
Sc34	 0.540160	 0.015466	 0.500000 
Dy35	 0.118723	 0.620416	 0.017200 
Dy36	 0.192730	 0.742232	 0.517200 
Dy37	 0.599777	 0.037206	 0.982800 
Dy38	 0.073496	 0.698752	 0.482800 
Sc39	 0.603186	 0.156302	 0.000000 
Sc40	 0.557958	 0.234638	 0.500000 
Sc41	 0.711439	 0.218802	 0.000000 
Sc42	 0.666211	 0.297138	 0.500000 
Dy43	 0.697049	 0.118726	 0.017200 
Dy44	 0.771056	 0.240542	 0.517200 
Dy45	 0.725829	 0.318878	 0.982800 
Dy46	 0.651822	 0.197062	 0.482800 
Sc47	 0.512731	 0.312974	 0.000000 
Sc48	 0.467503	 0.391311	 0.500000 
Sc49	 0.620984	 0.375474	 0.000000 
Sc50	 0.575757	 0.453811	 0.500000 
Dy51	 0.606594	 0.275398	 0.017200 
Dy52	 0.680601	 0.397214	 0.517200 
Dy53	 0.635374	 0.475551	 0.982800 
Dy54	 0.561367	 0.353735	 0.482800 
Sc55	 0.422276	 0.469647	 0.000000 
Sc56	 0.377049	 0.547983	 0.500000 
Sc57	 0.530529	 0.532147	 0.000000 
Sc58	 0.485302	 0.610483	 0.500000 
Dy59	 0.516139	 0.432071	 0.017200 
Dy60	 0.590146	 0.553887	 0.517200 
Dy61	 0.544919	 0.632223	 0.982800 
Dy62	 0.470912	 0.510407	 0.482800 
Sc63	 0.331821	 0.626319	 0.000000 
Sc64	 0.286594	 0.704656	 0.500000 
Sc65	 0.440074	 0.688819	 0.000000 
Sc66	 0.394847	 0.767156	 0.500000 
Dy67	 0.425685	 0.588743	 0.017200 
Dy68	 0.499691	 0.710559	 0.517200 
Dy69	 0.454464	 0.788896	 0.982800 
Dy70	 0.380457	 0.667079	 0.482800 
Sc71	 0.241366	 0.782992	 0.000000 
Sc72	 0.648413	 0.077966	 0.500000 
Sc73	 0.349619	 0.845492	 0.000000 
Sc74	 0.756666	 0.140466	 0.500000 
Dy75	 0.335230	 0.745416	 0.017200 
Dy76	 0.409237	 0.867232	 0.517200 
Dy77	 0.816284	 0.162206	 0.982800 
Dy78	 0.290002	 0.823752	 0.482800 
Sc79	 0.819692	 0.281302	 0.000000 
Sc80	 0.774465	 0.359638	 0.500000 
Sc81	 0.927945	 0.343802	 0.000000 
Sc82	 0.882718	 0.422138	 0.500000 
Dy83	 0.913555	 0.243726	 0.017200 
Dy84	 0.987562	 0.365542	 0.517200 
Dy85	 0.942335	 0.443878	 0.982800 
Dy86	 0.868328	 0.322062	 0.482800 
Sc87	 0.729237	 0.437974	 0.000000 
Sc88	 0.684010	 0.516311	 0.500000 
Sc89	 0.837490	 0.500474	 0.000000 
Sc90	 0.792263	 0.578811	 0.500000 
Dy91	 0.823101	 0.400398	 0.017200 
Dy92	 0.897108	 0.522214	 0.517200 
Dy93	 0.851880	 0.600551	 0.982800 
Dy94	 0.777873	 0.478735	 0.482800 
Sc95	 0.638782	 0.594647	 0.000000 
Sc96	 0.593555	 0.672983	 0.500000 
Sc97	 0.747035	 0.657147	 0.000000 
Sc98	 0.701808	 0.735483	 0.500000 
Dy99	 0.732646	 0.557071	 0.017200 
Dy100	 0.806653	 0.678887	 0.517200 
Dy101	 0.761425	 0.757223	 0.982800 
Dy102	 0.687418	 0.635407	 0.482800 
Sc103	 0.548327	 0.751319	 0.000000 
Sc104	 0.503100	 0.829656	 0.500000 
Sc105	 0.656581	 0.813819	 0.000000 
Sc106	 0.611353	 0.892156	 0.500000 
Dy107	 0.642191	 0.713743	 0.017200 
Dy108	 0.716198	 0.835559	 0.517200 
Dy109	 0.670970	 0.913896	 0.982800 
Dy110	 0.596963	 0.792079	 0.482800 
Sc111	 0.457873	 0.907992	 0.000000 
Sc112	 0.864920	 0.202966	 0.500000 
Sc113	 0.566126	 0.970492	 0.000000 
Sc114	 0.973173	 0.265466	 0.500000 
Dy115	 0.551736	 0.870416	 0.017200 
Dy116	 0.625743	 0.992232	 0.517200 
Dy117	 0.506509	 0.948752	 0.482800 
Sc118	 0.990971	 0.484638	 0.500000 
Sc119	 0.233199	 0.047138	 0.500000 
Dy120	 0.292816	 0.068878	 0.982800 
Sc121	 0.945744	 0.562974	 0.000000 
Sc122	 0.900516	 0.641311	 0.500000 
Sc123	 0.187971	 0.125474	 0.000000 
Sc124	 0.142744	 0.203811	 0.500000 
Dy125	 0.247589	 0.147214	 0.517200 
Dy126	 0.202361	 0.225551	 0.982800 
Dy127	 0.994380	 0.603735	 0.482800 
Sc128	 0.855289	 0.719647	 0.000000 
Sc129	 0.810061	 0.797983	 0.500000 
Sc130	 0.097516	 0.282147	 0.000000 
Sc131	 0.052289	 0.360483	 0.500000 
Dy132	 0.949152	 0.682071	 0.017200 
Dy133	 0.157134	 0.303887	 0.517200 
Dy134	 0.111906	 0.382223	 0.982800 
Dy135	 0.903925	 0.760407	 0.482800 
Sc136	 0.764834	 0.876319	 0.000000 
Sc137	 0.719606	 0.954656	 0.500000 
Sc138	 0.007062	 0.438819	 0.000000 
Dy139	 0.858697	 0.838743	 0.017200 
Dy140	 0.066679	 0.460559	 0.517200 
Dy141	 0.021451	 0.538896	 0.982800 
Dy142	 0.813470	 0.917079	 0.482800 
Dy143	 0.768242	 0.995416	 0.017200 
#                 ---end-of-data-block---
