data_C:\Users\admin\Documents\atomsegmentation_bupt_fullsuite_3\misc\12077.cif
_cell_length_a               31.652800
_cell_length_b               31.652800
_cell_length_c               5.449400
_cell_angle_alpha          90.000000
_cell_angle_beta           90.000000
_cell_angle_gamma          90.000000
_symmetry_cell_setting          Triclinic
_symmetry_space_group_name_H-M 'P 1' 
loop_
_atom_site_label
_atom_site_fract_x
_atom_site_fract_y
_atom_site_fract_z
Sc1	 0.449749	 0.004560	 0.000000 
Sc2	 0.371413	 0.049787	 0.500000 
Sc3	 0.512249	 0.112813	 0.000000 
Sc4	 0.433913	 0.158041	 0.500000 
Dy5	 0.549825	 0.018950	 0.017200 
Dy6	 0.553009	 0.161449	 0.517200 
Dy7	 0.474673	 0.206677	 0.982800 
Dy8	 0.471489	 0.064177	 0.482800 
Sc9	 0.293076	 0.095015	 0.000000 
Sc10	 0.214740	 0.140242	 0.500000 
Sc11	 0.355576	 0.203268	 0.000000 
Sc12	 0.277240	 0.248496	 0.500000 
Dy13	 0.393153	 0.109405	 0.017200 
Dy14	 0.396337	 0.251904	 0.517200 
Dy15	 0.318000	 0.297131	 0.982800 
Dy16	 0.314816	 0.154632	 0.482800 
Sc17	 0.136404	 0.185470	 0.000000 
Sc18	 0.058068	 0.230697	 0.500000 
Sc19	 0.198904	 0.293723	 0.000000 
Sc20	 0.120568	 0.338950	 0.500000 
Dy21	 0.236480	 0.199860	 0.017200 
Dy22	 0.239664	 0.342359	 0.517200 
Dy23	 0.161328	 0.387586	 0.982800 
Dy24	 0.158144	 0.245087	 0.482800 
Sc25	 0.042232	 0.384178	 0.000000 
Dy26	 0.079808	 0.290314	 0.017200 
Dy27	 0.082992	 0.432814	 0.517200 
Dy28	 0.004655	 0.478041	 0.982800 
Dy29	 0.001472	 0.335542	 0.482800 
Sc30	 0.668921	 0.022358	 0.000000 
Sc31	 0.590585	 0.067586	 0.500000 
Dy32	 0.709681	 0.070994	 0.517200 
Dy33	 0.631345	 0.116222	 0.982800 
Sc34	 0.574749	 0.221066	 0.000000 
Sc35	 0.496413	 0.266294	 0.500000 
Sc36	 0.637249	 0.329320	 0.000000 
Sc37	 0.558913	 0.374547	 0.500000 
Dy38	 0.674825	 0.235456	 0.017200 
Dy39	 0.678009	 0.377956	 0.517200 
Dy40	 0.599673	 0.423183	 0.982800 
Dy41	 0.596489	 0.280684	 0.482800 
Sc42	 0.418076	 0.311521	 0.000000 
Sc43	 0.339740	 0.356749	 0.500000 
Sc44	 0.480576	 0.419774	 0.000000 
Sc45	 0.402240	 0.465002	 0.500000 
Dy46	 0.518153	 0.325911	 0.017200 
Dy47	 0.521337	 0.468410	 0.517200 
Dy48	 0.443000	 0.513638	 0.982800 
Dy49	 0.439816	 0.371138	 0.482800 
Sc50	 0.261404	 0.401976	 0.000000 
Sc51	 0.183068	 0.447204	 0.500000 
Sc52	 0.323904	 0.510229	 0.000000 
Sc53	 0.245568	 0.555457	 0.500000 
Dy54	 0.361480	 0.416366	 0.017200 
Dy55	 0.364664	 0.558865	 0.517200 
Dy56	 0.286328	 0.604093	 0.982800 
Dy57	 0.283144	 0.461593	 0.482800 
Sc58	 0.104732	 0.492431	 0.000000 
Sc59	 0.026395	 0.537658	 0.500000 
Sc60	 0.167232	 0.600684	 0.000000 
Sc61	 0.088895	 0.645912	 0.500000 
Dy62	 0.204808	 0.506821	 0.017200 
Dy63	 0.207992	 0.649320	 0.517200 
Dy64	 0.129655	 0.694548	 0.982800 
Dy65	 0.126472	 0.552048	 0.482800 
Sc66	 0.731421	 0.130612	 0.000000 
Sc67	 0.653085	 0.175839	 0.500000 
Sc68	 0.793921	 0.238865	 0.000000 
Sc69	 0.715585	 0.284092	 0.500000 
Dy70	 0.048135	 0.597276	 0.017200 
Dy71	 0.834681	 0.287501	 0.517200 
Dy72	 0.756345	 0.332728	 0.982800 
Dy73	 0.753161	 0.190229	 0.482800 
Sc74	 0.699749	 0.437573	 0.000000 
Sc75	 0.621413	 0.482800	 0.500000 
Sc76	 0.762249	 0.545826	 0.000000 
Sc77	 0.683913	 0.591053	 0.500000 
Dy78	 0.799825	 0.451963	 0.017200 
Dy79	 0.803009	 0.594462	 0.517200 
Dy80	 0.724673	 0.639689	 0.982800 
Dy81	 0.721489	 0.497190	 0.482800 
Sc82	 0.543076	 0.528028	 0.000000 
Sc83	 0.464740	 0.573255	 0.500000 
Sc84	 0.605576	 0.636281	 0.000000 
Sc85	 0.527240	 0.681508	 0.500000 
Dy86	 0.643153	 0.542417	 0.017200 
Dy87	 0.646337	 0.684917	 0.517200 
Dy88	 0.568000	 0.730144	 0.982800 
Dy89	 0.564816	 0.587645	 0.482800 
Sc90	 0.386404	 0.618482	 0.000000 
Sc91	 0.308068	 0.663710	 0.500000 
Sc92	 0.448904	 0.726736	 0.000000 
Sc93	 0.370568	 0.771963	 0.500000 
Dy94	 0.486480	 0.632872	 0.017200 
Dy95	 0.489664	 0.775372	 0.517200 
Dy96	 0.411328	 0.820599	 0.982800 
Dy97	 0.408144	 0.678100	 0.482800 
Sc98	 0.229732	 0.708937	 0.000000 
Sc99	 0.151395	 0.754165	 0.500000 
Sc100	 0.292232	 0.817191	 0.000000 
Sc101	 0.213895	 0.862418	 0.500000 
Dy102	 0.329808	 0.723327	 0.017200 
Dy103	 0.332992	 0.865827	 0.517200 
Dy104	 0.254655	 0.911054	 0.982800 
Dy105	 0.251472	 0.768555	 0.482800 
Sc106	 0.856421	 0.347118	 0.000000 
Sc107	 0.778085	 0.392345	 0.500000 
Sc108	 0.918921	 0.455371	 0.000000 
Sc109	 0.840585	 0.500598	 0.500000 
Dy110	 0.173135	 0.813782	 0.017200 
Dy111	 0.959681	 0.504007	 0.517200 
Dy112	 0.881345	 0.549234	 0.982800 
Dy113	 0.878161	 0.406735	 0.482800 
Sc114	 0.824749	 0.654079	 0.000000 
Sc115	 0.746413	 0.699307	 0.500000 
Sc116	 0.887249	 0.762332	 0.000000 
Sc117	 0.808913	 0.807560	 0.500000 
Dy118	 0.924825	 0.668469	 0.017200 
Dy119	 0.928009	 0.810968	 0.517200 
Dy120	 0.849673	 0.856196	 0.982800 
Dy121	 0.846489	 0.713696	 0.482800 
Sc122	 0.668076	 0.744534	 0.000000 
Sc123	 0.589740	 0.789761	 0.500000 
Sc124	 0.730576	 0.852787	 0.000000 
Sc125	 0.652240	 0.898015	 0.500000 
Dy126	 0.768153	 0.758924	 0.017200 
Dy127	 0.771337	 0.901423	 0.517200 
Dy128	 0.693000	 0.946651	 0.982800 
Dy129	 0.689816	 0.804151	 0.482800 
Sc130	 0.511404	 0.834989	 0.000000 
Sc131	 0.433068	 0.880216	 0.500000 
Sc132	 0.573904	 0.943242	 0.000000 
Sc133	 0.495568	 0.988469	 0.500000 
Dy134	 0.611480	 0.849379	 0.017200 
Dy135	 0.614664	 0.991878	 0.517200 
Dy136	 0.533144	 0.894606	 0.482800 
Sc137	 0.354732	 0.925444	 0.000000 
Sc138	 0.276395	 0.970671	 0.500000 
Dy139	 0.454808	 0.939833	 0.017200 
Dy140	 0.376472	 0.985061	 0.482800 
Sc141	 0.981421	 0.563624	 0.000000 
Sc142	 0.903085	 0.608852	 0.500000 
Sc143	 0.965585	 0.717105	 0.500000 
#                 ---end-of-data-block---
