data_C:\Users\admin\Documents\atomsegmentation_bupt_fullsuite_3\misc\12071.cif
_cell_length_a               31.652800
_cell_length_b               31.652800
_cell_length_c               5.449400
_cell_angle_alpha          90.000000
_cell_angle_beta           90.000000
_cell_angle_gamma          90.000000
_symmetry_cell_setting          Triclinic
_symmetry_space_group_name_H-M 'P 1' 
loop_
_atom_site_label
_atom_site_fract_x
_atom_site_fract_y
_atom_site_fract_z
Sc1	 0.336828	 0.035342	 0.500000 
Sc2	 0.477665	 0.098368	 0.000000 
Sc3	 0.399328	 0.143595	 0.500000 
Dy4	 0.515241	 0.004504	 0.017200 
Dy5	 0.518425	 0.147004	 0.517200 
Dy6	 0.440088	 0.192231	 0.982800 
Dy7	 0.436904	 0.049732	 0.482800 
Sc8	 0.258492	 0.080569	 0.000000 
Sc9	 0.180156	 0.125797	 0.500000 
Sc10	 0.320992	 0.188823	 0.000000 
Sc11	 0.242656	 0.234050	 0.500000 
Dy12	 0.358568	 0.094959	 0.017200 
Dy13	 0.361752	 0.237459	 0.517200 
Dy14	 0.283416	 0.282686	 0.982800 
Dy15	 0.280232	 0.140187	 0.482800 
Sc16	 0.101820	 0.171024	 0.000000 
Sc17	 0.023483	 0.216252	 0.500000 
Sc18	 0.164320	 0.279277	 0.000000 
Sc19	 0.085983	 0.324505	 0.500000 
Dy20	 0.201896	 0.185414	 0.017200 
Dy21	 0.205080	 0.327913	 0.517200 
Dy22	 0.126743	 0.373141	 0.982800 
Dy23	 0.123560	 0.230641	 0.482800 
Sc24	 0.007647	 0.369732	 0.000000 
Dy25	 0.045223	 0.275869	 0.017200 
Dy26	 0.048407	 0.418368	 0.517200 
Sc27	 0.634337	 0.007913	 0.000000 
Sc28	 0.556001	 0.053140	 0.500000 
Dy29	 0.675097	 0.056549	 0.517200 
Dy30	 0.596761	 0.101776	 0.982800 
Sc31	 0.540165	 0.206621	 0.000000 
Sc32	 0.461828	 0.251848	 0.500000 
Sc33	 0.602665	 0.314874	 0.000000 
Sc34	 0.524328	 0.360101	 0.500000 
Dy35	 0.640241	 0.221011	 0.017200 
Dy36	 0.643425	 0.363510	 0.517200 
Dy37	 0.565088	 0.408737	 0.982800 
Dy38	 0.561904	 0.266238	 0.482800 
Sc39	 0.383492	 0.297076	 0.000000 
Sc40	 0.305156	 0.342303	 0.500000 
Sc41	 0.445992	 0.405329	 0.000000 
Sc42	 0.367656	 0.450556	 0.500000 
Dy43	 0.483568	 0.311465	 0.017200 
Dy44	 0.486752	 0.453965	 0.517200 
Dy45	 0.408416	 0.499192	 0.982800 
Dy46	 0.405232	 0.356693	 0.482800 
Sc47	 0.226820	 0.387531	 0.000000 
Sc48	 0.148483	 0.432758	 0.500000 
Sc49	 0.289320	 0.495784	 0.000000 
Sc50	 0.210983	 0.541011	 0.500000 
Dy51	 0.326896	 0.401920	 0.017200 
Dy52	 0.330080	 0.544420	 0.517200 
Dy53	 0.251743	 0.589647	 0.982800 
Dy54	 0.248560	 0.447148	 0.482800 
Sc55	 0.070147	 0.477985	 0.000000 
Sc56	 0.132647	 0.586239	 0.000000 
Sc57	 0.054311	 0.631466	 0.500000 
Dy58	 0.170223	 0.492375	 0.017200 
Dy59	 0.173407	 0.634875	 0.517200 
Dy60	 0.095071	 0.680102	 0.982800 
Dy61	 0.091887	 0.537603	 0.482800 
Sc62	 0.696837	 0.116166	 0.000000 
Sc63	 0.618501	 0.161393	 0.500000 
Sc64	 0.759337	 0.224419	 0.000000 
Sc65	 0.681001	 0.269647	 0.500000 
Dy66	 0.796913	 0.130556	 0.017200 
Dy67	 0.800097	 0.273055	 0.517200 
Dy68	 0.721761	 0.318283	 0.982800 
Dy69	 0.718577	 0.175783	 0.482800 
Sc70	 0.665165	 0.423127	 0.000000 
Sc71	 0.586828	 0.468355	 0.500000 
Sc72	 0.727665	 0.531380	 0.000000 
Sc73	 0.649328	 0.576608	 0.500000 
Dy74	 0.765241	 0.437517	 0.017200 
Dy75	 0.768425	 0.580016	 0.517200 
Dy76	 0.690088	 0.625244	 0.982800 
Dy77	 0.686904	 0.482744	 0.482800 
Sc78	 0.508492	 0.513582	 0.000000 
Sc79	 0.430156	 0.558810	 0.500000 
Sc80	 0.570992	 0.621835	 0.000000 
Sc81	 0.492656	 0.667063	 0.500000 
Dy82	 0.608568	 0.527972	 0.017200 
Dy83	 0.611752	 0.670471	 0.517200 
Dy84	 0.533416	 0.715699	 0.982800 
Dy85	 0.530232	 0.573199	 0.482800 
Sc86	 0.351820	 0.604037	 0.000000 
Sc87	 0.273483	 0.649264	 0.500000 
Sc88	 0.414320	 0.712290	 0.000000 
Sc89	 0.335983	 0.757518	 0.500000 
Dy90	 0.451896	 0.618427	 0.017200 
Dy91	 0.455080	 0.760926	 0.517200 
Dy92	 0.376743	 0.806154	 0.982800 
Dy93	 0.373560	 0.663654	 0.482800 
Sc94	 0.195147	 0.694492	 0.000000 
Sc95	 0.116811	 0.739719	 0.500000 
Sc96	 0.257647	 0.802745	 0.000000 
Sc97	 0.179311	 0.847972	 0.500000 
Dy98	 0.295223	 0.708882	 0.017200 
Dy99	 0.298407	 0.851381	 0.517200 
Dy100	 0.220071	 0.896608	 0.982800 
Dy101	 0.216887	 0.754109	 0.482800 
Sc102	 0.821837	 0.332672	 0.000000 
Sc103	 0.743501	 0.377900	 0.500000 
Sc104	 0.884337	 0.440926	 0.000000 
Sc105	 0.806001	 0.486153	 0.500000 
Dy106	 0.921913	 0.347062	 0.017200 
Dy107	 0.925097	 0.489561	 0.517200 
Dy108	 0.846761	 0.534789	 0.982800 
Dy109	 0.843577	 0.392290	 0.482800 
Sc110	 0.790165	 0.639634	 0.000000 
Sc111	 0.711828	 0.684861	 0.500000 
Sc112	 0.852665	 0.747887	 0.000000 
Sc113	 0.774328	 0.793114	 0.500000 
Dy114	 0.890241	 0.654023	 0.017200 
Dy115	 0.893425	 0.796523	 0.517200 
Dy116	 0.815088	 0.841750	 0.982800 
Dy117	 0.811904	 0.699251	 0.482800 
Sc118	 0.633492	 0.730088	 0.000000 
Sc119	 0.555156	 0.775316	 0.500000 
Sc120	 0.695992	 0.838342	 0.000000 
Sc121	 0.617656	 0.883569	 0.500000 
Dy122	 0.733568	 0.744478	 0.017200 
Dy123	 0.736752	 0.886978	 0.517200 
Dy124	 0.658416	 0.932205	 0.982800 
Dy125	 0.655232	 0.789706	 0.482800 
Sc126	 0.476820	 0.820543	 0.000000 
Sc127	 0.398483	 0.865771	 0.500000 
Sc128	 0.539320	 0.928796	 0.000000 
Sc129	 0.460983	 0.974024	 0.500000 
Dy130	 0.576896	 0.834933	 0.017200 
Dy131	 0.580080	 0.977432	 0.517200 
Dy132	 0.498560	 0.880160	 0.482800 
Sc133	 0.320147	 0.910998	 0.000000 
Sc134	 0.241811	 0.956226	 0.500000 
Dy135	 0.420223	 0.925388	 0.017200 
Dy136	 0.341887	 0.970615	 0.482800 
Sc137	 0.946837	 0.549179	 0.000000 
Sc138	 0.868501	 0.594406	 0.500000 
Sc139	 0.931001	 0.702659	 0.500000 
Dy140	 0.971761	 0.751295	 0.982800 
Dy141	 0.968577	 0.608796	 0.482800 
#                 ---end-of-data-block---
