data_C:\Users\admin\Documents\atomsegmentation_bupt_fullsuite_3\misc\12076.cif
_cell_length_a               31.652800
_cell_length_b               31.652800
_cell_length_c               5.449400
_cell_angle_alpha          90.000000
_cell_angle_beta           90.000000
_cell_angle_gamma          90.000000
_symmetry_cell_setting          Triclinic
_symmetry_space_group_name_H-M 'P 1' 
loop_
_atom_site_label
_atom_site_fract_x
_atom_site_fract_y
_atom_site_fract_z
Sc1	 0.578001	 0.035938	 0.000000 
Sc2	 0.499665	 0.081166	 0.500000 
Dy3	 0.618761	 0.084574	 0.517200 
Dy4	 0.540425	 0.129802	 0.982800 
Sc5	 0.358828	 0.018140	 0.000000 
Sc6	 0.280492	 0.063367	 0.500000 
Sc7	 0.421328	 0.126393	 0.000000 
Sc8	 0.342992	 0.171620	 0.500000 
Dy9	 0.458905	 0.032530	 0.017200 
Dy10	 0.462089	 0.175029	 0.517200 
Dy11	 0.383752	 0.220256	 0.982800 
Dy12	 0.380568	 0.077757	 0.482800 
Sc13	 0.202156	 0.108595	 0.000000 
Sc14	 0.123820	 0.153822	 0.500000 
Sc15	 0.264656	 0.216848	 0.000000 
Sc16	 0.186320	 0.262075	 0.500000 
Dy17	 0.302232	 0.122984	 0.017200 
Dy18	 0.305416	 0.265484	 0.517200 
Dy19	 0.227080	 0.310711	 0.982800 
Dy20	 0.223896	 0.168212	 0.482800 
Sc21	 0.045484	 0.199050	 0.000000 
Sc22	 0.107984	 0.307303	 0.000000 
Sc23	 0.029647	 0.352530	 0.500000 
Dy24	 0.145560	 0.213439	 0.017200 
Dy25	 0.148744	 0.355939	 0.517200 
Dy26	 0.070407	 0.401166	 0.982800 
Dy27	 0.067224	 0.258667	 0.482800 
Dy28	 0.697097	 0.039347	 0.982800 
Sc29	 0.640501	 0.144191	 0.000000 
Sc30	 0.562165	 0.189419	 0.500000 
Sc31	 0.703001	 0.252444	 0.000000 
Sc32	 0.624665	 0.297672	 0.500000 
Dy33	 0.740577	 0.158581	 0.017200 
Dy34	 0.743761	 0.301080	 0.517200 
Dy35	 0.665425	 0.346308	 0.982800 
Dy36	 0.662241	 0.203808	 0.482800 
Sc37	 0.483828	 0.234646	 0.000000 
Sc38	 0.405492	 0.279874	 0.500000 
Sc39	 0.546328	 0.342899	 0.000000 
Sc40	 0.467992	 0.388127	 0.500000 
Dy41	 0.583905	 0.249036	 0.017200 
Dy42	 0.587089	 0.391535	 0.517200 
Dy43	 0.508752	 0.436763	 0.982800 
Dy44	 0.505568	 0.294263	 0.482800 
Sc45	 0.327156	 0.325101	 0.000000 
Sc46	 0.248820	 0.370328	 0.500000 
Sc47	 0.389656	 0.433354	 0.000000 
Sc48	 0.311320	 0.478582	 0.500000 
Dy49	 0.427232	 0.339491	 0.017200 
Dy50	 0.430416	 0.481990	 0.517200 
Dy51	 0.352080	 0.527218	 0.982800 
Dy52	 0.348896	 0.384718	 0.482800 
Sc53	 0.170484	 0.415556	 0.000000 
Sc54	 0.092147	 0.460783	 0.500000 
Sc55	 0.232984	 0.523809	 0.000000 
Sc56	 0.154647	 0.569037	 0.500000 
Dy57	 0.270560	 0.429946	 0.017200 
Dy58	 0.273744	 0.572445	 0.517200 
Dy59	 0.195407	 0.617673	 0.982800 
Dy60	 0.192224	 0.475173	 0.482800 
Sc61	 0.013811	 0.506011	 0.000000 
Sc62	 0.718837	 0.098964	 0.500000 
Sc63	 0.076311	 0.614264	 0.000000 
Sc64	 0.781337	 0.207217	 0.500000 
Dy65	 0.113887	 0.520401	 0.017200 
Dy66	 0.117071	 0.662900	 0.517200 
Dy67	 0.822097	 0.255853	 0.982800 
Dy68	 0.035551	 0.565628	 0.482800 
Sc69	 0.765501	 0.360698	 0.000000 
Sc70	 0.687165	 0.405925	 0.500000 
Sc71	 0.828001	 0.468951	 0.000000 
Sc72	 0.749665	 0.514178	 0.500000 
Dy73	 0.865577	 0.375087	 0.017200 
Dy74	 0.868761	 0.517587	 0.517200 
Dy75	 0.790425	 0.562814	 0.982800 
Dy76	 0.787241	 0.420315	 0.482800 
Sc77	 0.608828	 0.451153	 0.000000 
Sc78	 0.530492	 0.496380	 0.500000 
Sc79	 0.671328	 0.559406	 0.000000 
Sc80	 0.592992	 0.604633	 0.500000 
Dy81	 0.708905	 0.465542	 0.017200 
Dy82	 0.712089	 0.608042	 0.517200 
Dy83	 0.633752	 0.653269	 0.982800 
Dy84	 0.630568	 0.510770	 0.482800 
Sc85	 0.452156	 0.541607	 0.000000 
Sc86	 0.373820	 0.586835	 0.500000 
Sc87	 0.514656	 0.649861	 0.000000 
Sc88	 0.436320	 0.695088	 0.500000 
Dy89	 0.552232	 0.555997	 0.017200 
Dy90	 0.555416	 0.698497	 0.517200 
Dy91	 0.477080	 0.743724	 0.982800 
Dy92	 0.473896	 0.601225	 0.482800 
Sc93	 0.295484	 0.632062	 0.000000 
Sc94	 0.217147	 0.677290	 0.500000 
Sc95	 0.357984	 0.740315	 0.000000 
Sc96	 0.279647	 0.785543	 0.500000 
Dy97	 0.395560	 0.646452	 0.017200 
Dy98	 0.398744	 0.788951	 0.517200 
Dy99	 0.320407	 0.834179	 0.982800 
Dy100	 0.317224	 0.691679	 0.482800 
Sc101	 0.138811	 0.722517	 0.000000 
Sc102	 0.843837	 0.315470	 0.500000 
Sc103	 0.201311	 0.830770	 0.000000 
Sc104	 0.906337	 0.423723	 0.500000 
Dy105	 0.238887	 0.736907	 0.017200 
Dy106	 0.242071	 0.879406	 0.517200 
Dy107	 0.947097	 0.472359	 0.982800 
Dy108	 0.160551	 0.782134	 0.482800 
Sc109	 0.890501	 0.577204	 0.000000 
Sc110	 0.812165	 0.622431	 0.500000 
Sc111	 0.953001	 0.685457	 0.000000 
Sc112	 0.874665	 0.730685	 0.500000 
Dy113	 0.990577	 0.591594	 0.017200 
Dy114	 0.993761	 0.734093	 0.517200 
Dy115	 0.915425	 0.779321	 0.982800 
Dy116	 0.912241	 0.636821	 0.482800 
Sc117	 0.733828	 0.667659	 0.000000 
Sc118	 0.655492	 0.712886	 0.500000 
Sc119	 0.796328	 0.775912	 0.000000 
Sc120	 0.717992	 0.821139	 0.500000 
Dy121	 0.833905	 0.682049	 0.017200 
Dy122	 0.837089	 0.824548	 0.517200 
Dy123	 0.758752	 0.869775	 0.982800 
Dy124	 0.755568	 0.727276	 0.482800 
Sc125	 0.577156	 0.758114	 0.000000 
Sc126	 0.498820	 0.803341	 0.500000 
Sc127	 0.639656	 0.866367	 0.000000 
Sc128	 0.561320	 0.911594	 0.500000 
Dy129	 0.677232	 0.772504	 0.017200 
Dy130	 0.680416	 0.915003	 0.517200 
Dy131	 0.602080	 0.960230	 0.982800 
Dy132	 0.598896	 0.817731	 0.482800 
Sc133	 0.420484	 0.848569	 0.000000 
Sc134	 0.342147	 0.893796	 0.500000 
Sc135	 0.482984	 0.956822	 0.000000 
Dy136	 0.520560	 0.862958	 0.017200 
Dy137	 0.442224	 0.908186	 0.482800 
Sc138	 0.263811	 0.939023	 0.000000 
Sc139	 0.968837	 0.531977	 0.500000 
Dy140	 0.363887	 0.953413	 0.017200 
Dy141	 0.285551	 0.998641	 0.482800 
#                 ---end-of-data-block---
