data_C:\Users\admin\Documents\atomsegmentation_bupt_fullsuite_3\misc\12086.cif
_cell_length_a               31.652800
_cell_length_b               31.652800
_cell_length_c               5.449400
_cell_angle_alpha          90.000000
_cell_angle_beta           90.000000
_cell_angle_gamma          90.000000
_symmetry_cell_setting          Triclinic
_symmetry_space_group_name_H-M 'P 1' 
loop_
_atom_site_label
_atom_site_fract_x
_atom_site_fract_y
_atom_site_fract_z
Sc1	 0.763828	 0.091708	 0.000000 
Sc2	 0.676456	 0.115119	 0.500000 
Dy3	 0.824418	 0.010768	 0.017200 
Dy4	 0.790612	 0.149236	 0.517200 
Dy5	 0.703239	 0.172647	 0.982800 
Dy6	 0.737045	 0.034179	 0.482800 
Sc7	 0.556731	 0.017790	 0.000000 
Sc8	 0.469358	 0.041201	 0.500000 
Sc9	 0.589083	 0.138531	 0.000000 
Sc10	 0.501710	 0.161942	 0.500000 
Dy11	 0.649672	 0.057591	 0.017200 
Dy12	 0.615866	 0.196059	 0.517200 
Dy13	 0.528494	 0.219470	 0.982800 
Dy14	 0.562300	 0.081002	 0.482800 
Sc15	 0.381985	 0.064613	 0.000000 
Sc16	 0.294613	 0.088024	 0.500000 
Sc17	 0.414338	 0.185353	 0.000000 
Sc18	 0.326965	 0.208765	 0.500000 
Dy19	 0.474927	 0.104414	 0.017200 
Dy20	 0.441121	 0.242882	 0.517200 
Dy21	 0.353748	 0.266293	 0.982800 
Dy22	 0.387554	 0.127825	 0.482800 
Sc23	 0.207240	 0.111436	 0.000000 
Sc24	 0.119867	 0.134847	 0.500000 
Sc25	 0.239592	 0.232176	 0.000000 
Sc26	 0.152219	 0.255588	 0.500000 
Dy27	 0.300182	 0.151237	 0.017200 
Dy28	 0.266375	 0.289705	 0.517200 
Dy29	 0.179003	 0.313116	 0.982800 
Dy30	 0.212809	 0.174648	 0.482800 
Sc31	 0.032494	 0.158258	 0.000000 
Sc32	 0.064847	 0.278999	 0.000000 
Sc33	 0.851201	 0.068296	 0.500000 
Dy34	 0.125436	 0.198060	 0.017200 
Dy35	 0.091630	 0.336527	 0.517200 
Dy36	 0.004257	 0.359939	 0.982800 
Dy37	 0.038064	 0.221471	 0.482800 
Sc38	 0.796181	 0.212448	 0.000000 
Sc39	 0.708808	 0.235860	 0.500000 
Sc40	 0.828533	 0.333189	 0.000000 
Sc41	 0.741160	 0.356601	 0.500000 
Dy42	 0.889123	 0.252249	 0.017200 
Dy43	 0.855316	 0.390717	 0.517200 
Dy44	 0.767944	 0.414129	 0.982800 
Dy45	 0.801750	 0.275661	 0.482800 
Sc46	 0.621435	 0.259271	 0.000000 
Sc47	 0.534063	 0.282683	 0.500000 
Sc48	 0.653788	 0.380012	 0.000000 
Sc49	 0.566415	 0.403423	 0.500000 
Dy50	 0.714377	 0.299072	 0.017200 
Dy51	 0.680571	 0.437540	 0.517200 
Dy52	 0.593198	 0.460952	 0.982800 
Dy53	 0.627005	 0.322484	 0.482800 
Sc54	 0.446690	 0.306094	 0.000000 
Sc55	 0.359317	 0.329506	 0.500000 
Sc56	 0.479042	 0.426835	 0.000000 
Sc57	 0.391670	 0.450246	 0.500000 
Dy58	 0.539632	 0.345895	 0.017200 
Dy59	 0.505826	 0.484363	 0.517200 
Dy60	 0.418453	 0.507775	 0.982800 
Dy61	 0.452259	 0.369307	 0.482800 
Sc62	 0.271945	 0.352917	 0.000000 
Sc63	 0.184572	 0.376328	 0.500000 
Sc64	 0.304297	 0.473658	 0.000000 
Sc65	 0.216924	 0.497069	 0.500000 
Dy66	 0.364886	 0.392718	 0.017200 
Dy67	 0.331080	 0.531186	 0.517200 
Dy68	 0.243707	 0.554597	 0.982800 
Dy69	 0.277514	 0.416130	 0.482800 
Sc70	 0.097199	 0.399740	 0.000000 
Sc71	 0.883553	 0.189037	 0.500000 
Sc72	 0.129552	 0.520481	 0.000000 
Sc73	 0.915906	 0.309778	 0.500000 
Dy74	 0.190141	 0.439541	 0.017200 
Dy75	 0.156335	 0.578009	 0.517200 
Dy76	 0.068962	 0.601420	 0.982800 
Dy77	 0.102768	 0.462952	 0.482800 
Sc78	 0.860886	 0.453930	 0.000000 
Sc79	 0.773513	 0.477341	 0.500000 
Sc80	 0.893238	 0.574671	 0.000000 
Sc81	 0.805865	 0.598082	 0.500000 
Dy82	 0.953827	 0.493731	 0.017200 
Dy83	 0.920021	 0.632199	 0.517200 
Dy84	 0.832648	 0.655610	 0.982800 
Dy85	 0.866455	 0.517142	 0.482800 
Sc86	 0.686140	 0.500753	 0.000000 
Sc87	 0.598767	 0.524164	 0.500000 
Sc88	 0.718493	 0.621493	 0.000000 
Sc89	 0.631120	 0.644905	 0.500000 
Dy90	 0.779082	 0.540554	 0.017200 
Dy91	 0.745276	 0.679022	 0.517200 
Dy92	 0.657903	 0.702433	 0.982800 
Dy93	 0.691709	 0.563965	 0.482800 
Sc94	 0.511395	 0.547576	 0.000000 
Sc95	 0.424022	 0.570987	 0.500000 
Sc96	 0.543747	 0.668316	 0.000000 
Sc97	 0.456374	 0.691728	 0.500000 
Dy98	 0.604337	 0.587377	 0.017200 
Dy99	 0.570530	 0.725845	 0.517200 
Dy100	 0.483158	 0.749256	 0.982800 
Dy101	 0.516964	 0.610788	 0.482800 
Sc102	 0.336649	 0.594398	 0.000000 
Sc103	 0.249277	 0.617810	 0.500000 
Sc104	 0.369002	 0.715139	 0.000000 
Sc105	 0.281629	 0.738551	 0.500000 
Dy106	 0.429591	 0.634200	 0.017200 
Dy107	 0.395785	 0.772667	 0.517200 
Dy108	 0.308412	 0.796079	 0.982800 
Dy109	 0.342218	 0.657611	 0.482800 
Sc110	 0.161904	 0.641221	 0.000000 
Sc111	 0.948258	 0.430518	 0.500000 
Sc112	 0.194256	 0.761962	 0.000000 
Sc113	 0.980611	 0.551259	 0.500000 
Dy114	 0.254846	 0.681022	 0.017200 
Dy115	 0.221040	 0.819490	 0.517200 
Dy116	 0.133667	 0.842902	 0.982800 
Dy117	 0.167473	 0.704434	 0.482800 
Sc118	 0.925590	 0.695411	 0.000000 
Sc119	 0.838218	 0.718823	 0.500000 
Sc120	 0.957943	 0.816152	 0.000000 
Sc121	 0.870570	 0.839563	 0.500000 
Dy122	 0.984726	 0.873680	 0.517200 
Dy123	 0.897353	 0.897092	 0.982800 
Dy124	 0.931159	 0.758624	 0.482800 
Sc125	 0.750845	 0.742234	 0.000000 
Sc126	 0.663472	 0.765646	 0.500000 
Sc127	 0.783197	 0.862975	 0.000000 
Sc128	 0.695825	 0.886386	 0.500000 
Dy129	 0.843787	 0.782035	 0.017200 
Dy130	 0.809981	 0.920503	 0.517200 
Dy131	 0.722608	 0.943915	 0.982800 
Dy132	 0.756414	 0.805447	 0.482800 
Sc133	 0.576099	 0.789057	 0.000000 
Sc134	 0.488727	 0.812469	 0.500000 
Sc135	 0.608452	 0.909798	 0.000000 
Sc136	 0.521079	 0.933209	 0.500000 
Dy137	 0.669041	 0.828858	 0.017200 
Dy138	 0.635235	 0.967326	 0.517200 
Dy139	 0.547862	 0.990737	 0.982800 
Dy140	 0.581669	 0.852270	 0.482800 
Sc141	 0.401354	 0.835880	 0.000000 
Sc142	 0.313981	 0.859291	 0.500000 
Sc143	 0.433706	 0.956621	 0.000000 
Sc144	 0.346334	 0.980032	 0.500000 
Dy145	 0.494296	 0.875681	 0.017200 
Dy146	 0.406923	 0.899092	 0.482800 
Sc147	 0.226609	 0.882703	 0.000000 
Dy148	 0.319551	 0.922504	 0.017200 
Dy149	 0.232178	 0.945915	 0.482800 
#                 ---end-of-data-block---
