data_C:\Users\admin\Documents\atomsegmentation_bupt_fullsuite_3\misc\12084.cif
_cell_length_a               31.652800
_cell_length_b               31.652800
_cell_length_c               5.449400
_cell_angle_alpha          90.000000
_cell_angle_beta           90.000000
_cell_angle_gamma          90.000000
_symmetry_cell_setting          Triclinic
_symmetry_space_group_name_H-M 'P 1' 
loop_
_atom_site_label
_atom_site_fract_x
_atom_site_fract_y
_atom_site_fract_z
Sc1	 0.690121	 0.185040	 0.000000 
Sc2	 0.602748	 0.208451	 0.500000 
Sc3	 0.722473	 0.305781	 0.000000 
Sc4	 0.635100	 0.329192	 0.500000 
Dy5	 0.783063	 0.224841	 0.017200 
Dy6	 0.749256	 0.363309	 0.517200 
Dy7	 0.661884	 0.386720	 0.982800 
Dy8	 0.695690	 0.248253	 0.482800 
Sc9	 0.515375	 0.231863	 0.000000 
Sc10	 0.428003	 0.255274	 0.500000 
Sc11	 0.547728	 0.352604	 0.000000 
Sc12	 0.460355	 0.376015	 0.500000 
Dy13	 0.608317	 0.271664	 0.017200 
Dy14	 0.574511	 0.410132	 0.517200 
Dy15	 0.487138	 0.433543	 0.982800 
Dy16	 0.520944	 0.295075	 0.482800 
Sc17	 0.340630	 0.278686	 0.000000 
Sc18	 0.253257	 0.302097	 0.500000 
Sc19	 0.372982	 0.399427	 0.000000 
Sc20	 0.285610	 0.422838	 0.500000 
Dy21	 0.433572	 0.318487	 0.017200 
Dy22	 0.399765	 0.456955	 0.517200 
Dy23	 0.312393	 0.480366	 0.982800 
Dy24	 0.346199	 0.341898	 0.482800 
Sc25	 0.165884	 0.325509	 0.000000 
Sc26	 0.078512	 0.348920	 0.500000 
Sc27	 0.198237	 0.446249	 0.000000 
Sc28	 0.110864	 0.469661	 0.500000 
Dy29	 0.258826	 0.365310	 0.017200 
Dy30	 0.225020	 0.503778	 0.517200 
Dy31	 0.137647	 0.527189	 0.982800 
Dy32	 0.171454	 0.388721	 0.482800 
Sc33	 0.864866	 0.138217	 0.000000 
Sc34	 0.777493	 0.161629	 0.500000 
Sc35	 0.897218	 0.258958	 0.000000 
Sc36	 0.809846	 0.282369	 0.500000 
Dy37	 0.084081	 0.412133	 0.017200 
Dy38	 0.050275	 0.550601	 0.517200 
Dy39	 0.836629	 0.339898	 0.982800 
Dy40	 0.870435	 0.201430	 0.482800 
Sc41	 0.754825	 0.426521	 0.000000 
Sc42	 0.667453	 0.449933	 0.500000 
Sc43	 0.787178	 0.547262	 0.000000 
Sc44	 0.699805	 0.570674	 0.500000 
Dy45	 0.847767	 0.466323	 0.017200 
Dy46	 0.813961	 0.604790	 0.517200 
Dy47	 0.726588	 0.628202	 0.982800 
Dy48	 0.760395	 0.489734	 0.482800 
Sc49	 0.580080	 0.473344	 0.000000 
Sc50	 0.492707	 0.496756	 0.500000 
Sc51	 0.612432	 0.594085	 0.000000 
Sc52	 0.525060	 0.617497	 0.500000 
Dy53	 0.673022	 0.513145	 0.017200 
Dy54	 0.639216	 0.651613	 0.517200 
Dy55	 0.551843	 0.675025	 0.982800 
Dy56	 0.585649	 0.536557	 0.482800 
Sc57	 0.405335	 0.520167	 0.000000 
Sc58	 0.317962	 0.543579	 0.500000 
Sc59	 0.437687	 0.640908	 0.000000 
Sc60	 0.350314	 0.664319	 0.500000 
Dy61	 0.498276	 0.559968	 0.017200 
Dy62	 0.464470	 0.698436	 0.517200 
Dy63	 0.377098	 0.721848	 0.982800 
Dy64	 0.410904	 0.583380	 0.482800 
Sc65	 0.230589	 0.566990	 0.000000 
Sc66	 0.143217	 0.590402	 0.500000 
Sc67	 0.262942	 0.687731	 0.000000 
Sc68	 0.175569	 0.711142	 0.500000 
Dy69	 0.323531	 0.606791	 0.017200 
Dy70	 0.289725	 0.745259	 0.517200 
Dy71	 0.202352	 0.768671	 0.982800 
Dy72	 0.236158	 0.630203	 0.482800 
Sc73	 0.929571	 0.379699	 0.000000 
Sc74	 0.842198	 0.403110	 0.500000 
Sc75	 0.961923	 0.500439	 0.000000 
Sc76	 0.874550	 0.523851	 0.500000 
Dy77	 0.148786	 0.653614	 0.017200 
Dy78	 0.114979	 0.792082	 0.517200 
Dy79	 0.901334	 0.581379	 0.982800 
Dy80	 0.935140	 0.442911	 0.482800 
Sc81	 0.819530	 0.668003	 0.000000 
Sc82	 0.732157	 0.691414	 0.500000 
Sc83	 0.851883	 0.788744	 0.000000 
Sc84	 0.764510	 0.812155	 0.500000 
Dy85	 0.912472	 0.707804	 0.017200 
Dy86	 0.878666	 0.846272	 0.517200 
Dy87	 0.791293	 0.869683	 0.982800 
Dy88	 0.825099	 0.731215	 0.482800 
Sc89	 0.644785	 0.714826	 0.000000 
Sc90	 0.557412	 0.738237	 0.500000 
Sc91	 0.677137	 0.835567	 0.000000 
Sc92	 0.589764	 0.858978	 0.500000 
Dy93	 0.737727	 0.754627	 0.017200 
Dy94	 0.703920	 0.893095	 0.517200 
Dy95	 0.616548	 0.916506	 0.982800 
Dy96	 0.650354	 0.778038	 0.482800 
Sc97	 0.470039	 0.761649	 0.000000 
Sc98	 0.382667	 0.785060	 0.500000 
Sc99	 0.502392	 0.882389	 0.000000 
Sc100	 0.415019	 0.905801	 0.500000 
Dy101	 0.562981	 0.801450	 0.017200 
Dy102	 0.529175	 0.939918	 0.517200 
Dy103	 0.441802	 0.963329	 0.982800 
Dy104	 0.475609	 0.824861	 0.482800 
Sc105	 0.295294	 0.808472	 0.000000 
Sc106	 0.207921	 0.831883	 0.500000 
Sc107	 0.327646	 0.929212	 0.000000 
Sc108	 0.240274	 0.952624	 0.500000 
Dy109	 0.388236	 0.848273	 0.017200 
Dy110	 0.354430	 0.986741	 0.517200 
Dy111	 0.300863	 0.871684	 0.482800 
Sc112	 0.994276	 0.621180	 0.000000 
Sc113	 0.906903	 0.644591	 0.500000 
Sc114	 0.939255	 0.765332	 0.500000 
Dy115	 0.213490	 0.895096	 0.017200 
Dy116	 0.966038	 0.822860	 0.982800 
Dy117	 0.999845	 0.684393	 0.482800 
Sc118	 0.884235	 0.909484	 0.000000 
Sc119	 0.796862	 0.932896	 0.500000 
Sc120	 0.657768	 0.064299	 0.000000 
Sc121	 0.570396	 0.087711	 0.500000 
Dy122	 0.684552	 0.121827	 0.517200 
Dy123	 0.597179	 0.145239	 0.982800 
Dy124	 0.630985	 0.006771	 0.482800 
Sc125	 0.709490	 0.956307	 0.000000 
Sc126	 0.622117	 0.979719	 0.500000 
Sc127	 0.483023	 0.111122	 0.000000 
Sc128	 0.395650	 0.134534	 0.500000 
Dy129	 0.543612	 0.030183	 0.017200 
Dy130	 0.509806	 0.168650	 0.517200 
Dy131	 0.422433	 0.192062	 0.982800 
Dy132	 0.456240	 0.053594	 0.482800 
Sc133	 0.308277	 0.157945	 0.000000 
Sc134	 0.220905	 0.181356	 0.500000 
Dy135	 0.368867	 0.077005	 0.017200 
Dy136	 0.335061	 0.215473	 0.517200 
Dy137	 0.247688	 0.238885	 0.982800 
Dy138	 0.281494	 0.100417	 0.482800 
Sc139	 0.133532	 0.204768	 0.000000 
Sc140	 0.046159	 0.228179	 0.500000 
Dy141	 0.194122	 0.123828	 0.017200 
Dy142	 0.160315	 0.262296	 0.517200 
Dy143	 0.072943	 0.285708	 0.982800 
Dy144	 0.106749	 0.147240	 0.482800 
Sc145	 0.971608	 0.886073	 0.500000 
Sc146	 0.832514	 0.017476	 0.000000 
Sc147	 0.745141	 0.040888	 0.500000 
Dy148	 0.019376	 0.170651	 0.017200 
Dy149	 0.771924	 0.098416	 0.982800 
#                 ---end-of-data-block---
