data_C:\Users\admin\Documents\atomsegmentation_bupt_fullsuite_3\misc\12081.cif
_cell_length_a               31.652800
_cell_length_b               31.652800
_cell_length_c               5.449400
_cell_angle_alpha          90.000000
_cell_angle_beta           90.000000
_cell_angle_gamma          90.000000
_symmetry_cell_setting          Triclinic
_symmetry_space_group_name_H-M 'P 1' 
loop_
_atom_site_label
_atom_site_fract_x
_atom_site_fract_y
_atom_site_fract_z
Sc1	 0.671048	 0.072605	 0.000000 
Sc2	 0.583675	 0.096016	 0.500000 
Sc3	 0.703400	 0.193345	 0.000000 
Sc4	 0.616028	 0.216757	 0.500000 
Dy5	 0.763990	 0.112406	 0.017200 
Dy6	 0.730183	 0.250873	 0.517200 
Dy7	 0.642811	 0.274285	 0.982800 
Dy8	 0.676617	 0.135817	 0.482800 
Sc9	 0.496302	 0.119427	 0.000000 
Sc10	 0.408930	 0.142839	 0.500000 
Sc11	 0.528655	 0.240168	 0.000000 
Sc12	 0.441282	 0.263580	 0.500000 
Dy13	 0.589244	 0.159228	 0.017200 
Dy14	 0.555438	 0.297696	 0.517200 
Dy15	 0.468065	 0.321108	 0.982800 
Dy16	 0.501872	 0.182640	 0.482800 
Sc17	 0.321557	 0.166250	 0.000000 
Sc18	 0.234184	 0.189662	 0.500000 
Sc19	 0.353909	 0.286991	 0.000000 
Sc20	 0.266537	 0.310402	 0.500000 
Dy21	 0.414499	 0.206051	 0.017200 
Dy22	 0.380693	 0.344519	 0.517200 
Dy23	 0.293320	 0.367931	 0.982800 
Dy24	 0.327126	 0.229463	 0.482800 
Sc25	 0.146812	 0.213073	 0.000000 
Sc26	 0.059439	 0.236485	 0.500000 
Sc27	 0.179164	 0.333814	 0.000000 
Sc28	 0.091791	 0.357225	 0.500000 
Dy29	 0.239753	 0.252874	 0.017200 
Dy30	 0.205947	 0.391342	 0.517200 
Dy31	 0.118575	 0.414754	 0.982800 
Dy32	 0.152381	 0.276286	 0.482800 
Sc33	 0.758421	 0.049193	 0.500000 
Sc34	 0.004419	 0.380637	 0.000000 
Sc35	 0.790773	 0.169934	 0.500000 
Dy36	 0.065008	 0.299697	 0.017200 
Dy37	 0.031202	 0.438165	 0.517200 
Dy38	 0.817556	 0.227462	 0.982800 
Dy39	 0.851362	 0.088994	 0.482800 
Sc40	 0.735753	 0.314086	 0.000000 
Sc41	 0.648380	 0.337497	 0.500000 
Sc42	 0.768105	 0.434827	 0.000000 
Sc43	 0.680732	 0.458238	 0.500000 
Dy44	 0.828694	 0.353887	 0.017200 
Dy45	 0.794888	 0.492355	 0.517200 
Dy46	 0.707515	 0.515766	 0.982800 
Dy47	 0.741322	 0.377298	 0.482800 
Sc48	 0.561007	 0.360909	 0.000000 
Sc49	 0.473634	 0.384320	 0.500000 
Sc50	 0.593360	 0.481650	 0.000000 
Sc51	 0.505987	 0.505061	 0.500000 
Dy52	 0.653949	 0.400710	 0.017200 
Dy53	 0.620143	 0.539178	 0.517200 
Dy54	 0.532770	 0.562589	 0.982800 
Dy55	 0.566576	 0.424121	 0.482800 
Sc56	 0.386262	 0.407732	 0.000000 
Sc57	 0.298889	 0.431143	 0.500000 
Sc58	 0.418614	 0.528472	 0.000000 
Sc59	 0.331241	 0.551884	 0.500000 
Dy60	 0.479204	 0.447533	 0.017200 
Dy61	 0.445397	 0.586001	 0.517200 
Dy62	 0.358025	 0.609412	 0.982800 
Dy63	 0.391831	 0.470944	 0.482800 
Sc64	 0.211516	 0.454555	 0.000000 
Sc65	 0.124144	 0.477966	 0.500000 
Sc66	 0.243869	 0.575295	 0.000000 
Sc67	 0.156496	 0.598707	 0.500000 
Dy68	 0.304458	 0.494356	 0.017200 
Dy69	 0.270652	 0.632824	 0.517200 
Dy70	 0.183279	 0.656235	 0.982800 
Dy71	 0.217086	 0.517767	 0.482800 
Sc72	 0.036771	 0.501378	 0.000000 
Sc73	 0.823125	 0.290675	 0.500000 
Sc74	 0.069123	 0.622118	 0.000000 
Sc75	 0.855478	 0.411415	 0.500000 
Dy76	 0.129713	 0.541179	 0.017200 
Dy77	 0.095907	 0.679646	 0.517200 
Dy78	 0.882261	 0.468943	 0.982800 
Dy79	 0.916067	 0.330476	 0.482800 
Sc80	 0.800457	 0.555567	 0.000000 
Sc81	 0.713085	 0.578979	 0.500000 
Sc82	 0.832810	 0.676308	 0.000000 
Sc83	 0.745437	 0.699720	 0.500000 
Dy84	 0.893399	 0.595368	 0.017200 
Dy85	 0.859593	 0.733836	 0.517200 
Dy86	 0.772220	 0.757248	 0.982800 
Dy87	 0.806026	 0.618780	 0.482800 
Sc88	 0.625712	 0.602390	 0.000000 
Sc89	 0.538339	 0.625802	 0.500000 
Sc90	 0.658064	 0.723131	 0.000000 
Sc91	 0.570692	 0.746542	 0.500000 
Dy92	 0.718654	 0.642191	 0.017200 
Dy93	 0.684848	 0.780659	 0.517200 
Dy94	 0.597475	 0.804071	 0.982800 
Dy95	 0.631281	 0.665603	 0.482800 
Sc96	 0.450967	 0.649213	 0.000000 
Sc97	 0.363594	 0.672625	 0.500000 
Sc98	 0.483319	 0.769954	 0.000000 
Sc99	 0.395946	 0.793365	 0.500000 
Dy100	 0.543908	 0.689014	 0.017200 
Dy101	 0.510102	 0.827482	 0.517200 
Dy102	 0.422729	 0.850894	 0.982800 
Dy103	 0.456536	 0.712426	 0.482800 
Sc104	 0.276221	 0.696036	 0.000000 
Sc105	 0.188848	 0.719448	 0.500000 
Sc106	 0.308574	 0.816777	 0.000000 
Sc107	 0.221201	 0.840188	 0.500000 
Dy108	 0.369163	 0.735837	 0.017200 
Dy109	 0.335357	 0.874305	 0.517200 
Dy110	 0.247984	 0.897716	 0.982800 
Dy111	 0.281790	 0.759249	 0.482800 
Sc112	 0.101476	 0.742859	 0.000000 
Sc113	 0.887830	 0.532156	 0.500000 
Sc114	 0.133828	 0.863600	 0.000000 
Sc115	 0.920182	 0.652897	 0.500000 
Dy116	 0.194418	 0.782660	 0.017200 
Dy117	 0.160611	 0.921128	 0.517200 
Dy118	 0.946966	 0.710425	 0.982800 
Dy119	 0.980772	 0.571957	 0.482800 
Sc120	 0.865162	 0.797049	 0.000000 
Sc121	 0.777789	 0.820460	 0.500000 
Dy122	 0.958104	 0.836850	 0.017200 
Dy123	 0.665479	 0.009392	 0.517200 
Dy124	 0.578106	 0.032803	 0.982800 
Dy125	 0.870731	 0.860261	 0.482800 
Sc126	 0.690417	 0.843872	 0.000000 
Sc127	 0.603044	 0.867283	 0.500000 
Sc128	 0.376577	 0.022098	 0.500000 
Dy129	 0.783359	 0.883673	 0.017200 
Dy130	 0.490733	 0.056215	 0.517200 
Dy131	 0.403361	 0.079626	 0.982800 
Dy132	 0.695986	 0.907084	 0.482800 
Sc133	 0.515671	 0.890695	 0.000000 
Sc134	 0.428299	 0.914106	 0.500000 
Sc135	 0.289205	 0.045510	 0.000000 
Sc136	 0.201832	 0.068921	 0.500000 
Dy137	 0.608613	 0.930496	 0.017200 
Dy138	 0.315988	 0.103038	 0.517200 
Dy139	 0.228615	 0.126449	 0.982800 
Dy140	 0.521240	 0.953907	 0.482800 
Sc141	 0.340926	 0.937518	 0.000000 
Sc142	 0.253553	 0.960929	 0.500000 
Sc143	 0.114459	 0.092332	 0.000000 
Sc144	 0.027087	 0.115744	 0.500000 
Dy145	 0.433868	 0.977319	 0.017200 
Dy146	 0.141242	 0.149861	 0.517200 
Dy147	 0.053870	 0.173272	 0.982800 
Sc148	 0.166181	 0.984340	 0.000000 
Sc149	 0.952535	 0.773637	 0.500000 
#                 ---end-of-data-block---
