data_Single Layer of MoS2nx 10 ny 6 nz 1
_cell_length_a               32.423991
_cell_length_b               32.423991
_cell_length_c               3.080000
_cell_angle_alpha          90.000000
_cell_angle_beta           90.000000
_cell_angle_gamma          90.000000
_symmetry_cell_setting          Triclinic
_symmetry_space_group_name_H-M 'P 1' 
loop_
_atom_site_label
_atom_site_fract_x
_atom_site_fract_y
_atom_site_fract_z
S1	 0.204677	 0.031977	 1.000000 
S2	 0.204677	 0.031977	 0.000000 
Mo3	 0.175920	 0.139302	 0.500000 
Mo4	 0.243961	 0.071261	 0.500000 
S5	 0.229582	 0.124923	 1.000000 
S6	 0.229582	 0.124923	 0.000000 
S7	 0.161541	 0.192965	 1.000000 
S8	 0.161541	 0.192965	 0.000000 
Mo9	 0.132783	 0.300290	 0.500000 
Mo10	 0.200825	 0.232248	 0.500000 
S11	 0.186446	 0.285911	 1.000000 
S12	 0.186446	 0.285911	 0.000000 
S13	 0.118404	 0.353952	 1.000000 
S14	 0.118404	 0.353952	 0.000000 
Mo15	 0.089647	 0.461278	 0.500000 
Mo16	 0.157688	 0.393236	 0.500000 
S17	 0.143309	 0.446899	 1.000000 
S18	 0.143309	 0.446899	 0.000000 
S19	 0.075268	 0.514940	 1.000000 
S20	 0.075268	 0.514940	 0.000000 
Mo21	 0.046510	 0.622265	 0.500000 
Mo22	 0.114552	 0.554224	 0.500000 
S23	 0.100173	 0.607886	 1.000000 
S24	 0.100173	 0.607886	 0.000000 
S25	 0.032131	 0.675928	 1.000000 
S26	 0.032131	 0.675928	 0.000000 
Mo27	 0.003374	 0.783253	 0.500000 
Mo28	 0.071415	 0.715211	 0.500000 
S29	 0.057036	 0.768874	 1.000000 
S30	 0.057036	 0.768874	 0.000000 
Mo31	 0.028279	 0.876199	 0.500000 
S32	 0.297624	 0.056882	 1.000000 
S33	 0.297624	 0.056882	 0.000000 
Mo34	 0.268866	 0.164207	 0.500000 
Mo35	 0.336907	 0.096166	 0.500000 
S36	 0.322528	 0.149828	 1.000000 
S37	 0.322528	 0.149828	 0.000000 
S38	 0.254487	 0.217870	 1.000000 
S39	 0.254487	 0.217870	 0.000000 
Mo40	 0.225729	 0.325195	 0.500000 
Mo41	 0.293771	 0.257153	 0.500000 
S42	 0.279392	 0.310816	 1.000000 
S43	 0.279392	 0.310816	 0.000000 
S44	 0.211351	 0.378857	 1.000000 
S45	 0.211351	 0.378857	 0.000000 
Mo46	 0.182593	 0.486182	 0.500000 
Mo47	 0.250634	 0.418141	 0.500000 
S48	 0.236255	 0.471804	 1.000000 
S49	 0.236255	 0.471804	 0.000000 
S50	 0.168214	 0.539845	 1.000000 
S51	 0.168214	 0.539845	 0.000000 
Mo52	 0.139456	 0.647170	 0.500000 
Mo53	 0.207498	 0.579129	 0.500000 
S54	 0.193119	 0.632791	 1.000000 
S55	 0.193119	 0.632791	 0.000000 
S56	 0.125078	 0.700833	 1.000000 
S57	 0.125078	 0.700833	 0.000000 
Mo58	 0.096320	 0.808158	 0.500000 
Mo59	 0.164361	 0.740116	 0.500000 
S60	 0.149982	 0.793779	 1.000000 
S61	 0.149982	 0.793779	 0.000000 
S62	 0.081941	 0.861820	 1.000000 
S63	 0.081941	 0.861820	 0.000000 
Mo64	 0.312002	 0.003219	 0.500000 
Mo65	 0.121225	 0.901104	 0.500000 
S66	 0.390570	 0.081787	 1.000000 
S67	 0.390570	 0.081787	 0.000000 
Mo68	 0.361812	 0.189112	 0.500000 
Mo69	 0.429854	 0.121071	 0.500000 
S70	 0.415475	 0.174733	 1.000000 
S71	 0.415475	 0.174733	 0.000000 
S72	 0.347433	 0.242775	 1.000000 
S73	 0.347433	 0.242775	 0.000000 
Mo74	 0.318676	 0.350100	 0.500000 
Mo75	 0.386717	 0.282058	 0.500000 
S76	 0.372338	 0.335721	 1.000000 
S77	 0.372338	 0.335721	 0.000000 
S78	 0.304297	 0.403762	 1.000000 
S79	 0.304297	 0.403762	 0.000000 
Mo80	 0.275539	 0.511087	 0.500000 
Mo81	 0.343581	 0.443046	 0.500000 
S82	 0.329202	 0.496708	 1.000000 
S83	 0.329202	 0.496708	 0.000000 
S84	 0.261160	 0.564750	 1.000000 
S85	 0.261160	 0.564750	 0.000000 
Mo86	 0.232403	 0.672075	 0.500000 
Mo87	 0.300444	 0.604034	 0.500000 
S88	 0.286065	 0.657696	 1.000000 
S89	 0.286065	 0.657696	 0.000000 
S90	 0.218024	 0.725737	 1.000000 
S91	 0.218024	 0.725737	 0.000000 
Mo92	 0.189266	 0.833063	 0.500000 
Mo93	 0.257308	 0.765021	 0.500000 
S94	 0.242929	 0.818684	 1.000000 
S95	 0.242929	 0.818684	 0.000000 
S96	 0.174887	 0.886725	 1.000000 
S97	 0.174887	 0.886725	 0.000000 
Mo98	 0.404949	 0.028124	 0.500000 
Mo99	 0.214171	 0.926009	 0.500000 
S100	 0.458611	 0.013746	 1.000000 
S101	 0.458611	 0.013746	 0.000000 
S102	 0.483516	 0.106692	 1.000000 
S103	 0.483516	 0.106692	 0.000000 
Mo104	 0.454758	 0.214017	 0.500000 
Mo105	 0.522800	 0.145975	 0.500000 
S106	 0.508421	 0.199638	 1.000000 
S107	 0.508421	 0.199638	 0.000000 
S108	 0.440380	 0.267679	 1.000000 
S109	 0.440380	 0.267679	 0.000000 
Mo110	 0.411622	 0.375005	 0.500000 
Mo111	 0.479663	 0.306963	 0.500000 
S112	 0.465284	 0.360626	 1.000000 
S113	 0.465284	 0.360626	 0.000000 
S114	 0.397243	 0.428667	 1.000000 
S115	 0.397243	 0.428667	 0.000000 
Mo116	 0.368485	 0.535992	 0.500000 
Mo117	 0.436527	 0.467951	 0.500000 
S118	 0.422148	 0.521613	 1.000000 
S119	 0.422148	 0.521613	 0.000000 
S120	 0.354107	 0.589655	 1.000000 
S121	 0.354107	 0.589655	 0.000000 
Mo122	 0.325349	 0.696980	 0.500000 
Mo123	 0.393390	 0.628938	 0.500000 
S124	 0.379011	 0.682601	 1.000000 
S125	 0.379011	 0.682601	 0.000000 
S126	 0.310970	 0.750642	 1.000000 
S127	 0.310970	 0.750642	 0.000000 
Mo128	 0.282212	 0.857967	 0.500000 
Mo129	 0.350254	 0.789926	 0.500000 
S130	 0.335875	 0.843589	 1.000000 
S131	 0.335875	 0.843589	 0.000000 
S132	 0.267834	 0.911630	 1.000000 
S133	 0.267834	 0.911630	 0.000000 
Mo134	 0.497895	 0.053029	 0.500000 
Mo135	 0.307117	 0.950914	 0.500000 
S136	 0.551558	 0.038650	 1.000000 
S137	 0.551558	 0.038650	 0.000000 
S138	 0.576462	 0.131597	 1.000000 
S139	 0.576462	 0.131597	 0.000000 
Mo140	 0.547705	 0.238922	 0.500000 
Mo141	 0.615746	 0.170880	 0.500000 
S142	 0.601367	 0.224543	 1.000000 
S143	 0.601367	 0.224543	 0.000000 
S144	 0.533326	 0.292584	 1.000000 
S145	 0.533326	 0.292584	 0.000000 
Mo146	 0.504568	 0.399909	 0.500000 
Mo147	 0.572610	 0.331868	 0.500000 
S148	 0.558231	 0.385531	 1.000000 
S149	 0.558231	 0.385531	 0.000000 
S150	 0.490189	 0.453572	 1.000000 
S151	 0.490189	 0.453572	 0.000000 
Mo152	 0.461432	 0.560897	 0.500000 
Mo153	 0.529473	 0.492856	 0.500000 
S154	 0.515094	 0.546518	 1.000000 
S155	 0.515094	 0.546518	 0.000000 
S156	 0.447053	 0.614560	 1.000000 
S157	 0.447053	 0.614560	 0.000000 
Mo158	 0.418295	 0.721885	 0.500000 
Mo159	 0.486337	 0.653843	 0.500000 
S160	 0.471958	 0.707506	 1.000000 
S161	 0.471958	 0.707506	 0.000000 
S162	 0.403916	 0.775547	 1.000000 
S163	 0.403916	 0.775547	 0.000000 
Mo164	 0.375159	 0.882872	 0.500000 
Mo165	 0.443200	 0.814831	 0.500000 
S166	 0.428821	 0.868493	 1.000000 
S167	 0.428821	 0.868493	 0.000000 
S168	 0.360780	 0.936535	 1.000000 
S169	 0.360780	 0.936535	 0.000000 
Mo170	 0.590841	 0.077934	 0.500000 
Mo171	 0.400064	 0.975819	 0.500000 
S172	 0.644504	 0.063555	 1.000000 
S173	 0.644504	 0.063555	 0.000000 
S174	 0.669409	 0.156502	 1.000000 
S175	 0.669409	 0.156502	 0.000000 
Mo176	 0.640651	 0.263827	 0.500000 
Mo177	 0.708692	 0.195785	 0.500000 
S178	 0.694314	 0.249448	 1.000000 
S179	 0.694314	 0.249448	 0.000000 
S180	 0.626272	 0.317489	 1.000000 
S181	 0.626272	 0.317489	 0.000000 
Mo182	 0.597514	 0.424814	 0.500000 
Mo183	 0.665556	 0.356773	 0.500000 
S184	 0.651177	 0.410435	 1.000000 
S185	 0.651177	 0.410435	 0.000000 
S186	 0.583136	 0.478477	 1.000000 
S187	 0.583136	 0.478477	 0.000000 
Mo188	 0.554378	 0.585802	 0.500000 
Mo189	 0.622419	 0.517761	 0.500000 
S190	 0.608040	 0.571423	 1.000000 
S191	 0.608040	 0.571423	 0.000000 
S192	 0.539999	 0.639464	 1.000000 
S193	 0.539999	 0.639464	 0.000000 
Mo194	 0.511241	 0.746790	 0.500000 
Mo195	 0.579283	 0.678748	 0.500000 
S196	 0.564904	 0.732411	 1.000000 
S197	 0.564904	 0.732411	 0.000000 
S198	 0.496863	 0.800452	 1.000000 
S199	 0.496863	 0.800452	 0.000000 
Mo200	 0.468105	 0.907777	 0.500000 
Mo201	 0.536146	 0.839736	 0.500000 
S202	 0.521767	 0.893398	 1.000000 
S203	 0.521767	 0.893398	 0.000000 
S204	 0.453726	 0.961440	 1.000000 
S205	 0.453726	 0.961440	 0.000000 
Mo206	 0.683787	 0.102839	 0.500000 
S207	 0.737450	 0.088460	 1.000000 
S208	 0.737450	 0.088460	 0.000000 
S209	 0.762355	 0.181406	 1.000000 
S210	 0.762355	 0.181406	 0.000000 
Mo211	 0.733597	 0.288731	 0.500000 
Mo212	 0.801639	 0.220690	 0.500000 
S213	 0.787260	 0.274353	 1.000000 
S214	 0.787260	 0.274353	 0.000000 
S215	 0.719218	 0.342394	 1.000000 
S216	 0.719218	 0.342394	 0.000000 
Mo217	 0.690461	 0.449719	 0.500000 
Mo218	 0.758502	 0.381678	 0.500000 
S219	 0.744123	 0.435340	 1.000000 
S220	 0.744123	 0.435340	 0.000000 
S221	 0.676082	 0.503382	 1.000000 
S222	 0.676082	 0.503382	 0.000000 
Mo223	 0.647324	 0.610707	 0.500000 
Mo224	 0.715366	 0.542665	 0.500000 
S225	 0.700987	 0.596328	 1.000000 
S226	 0.700987	 0.596328	 0.000000 
S227	 0.632945	 0.664369	 1.000000 
S228	 0.632945	 0.664369	 0.000000 
Mo229	 0.604188	 0.771694	 0.500000 
Mo230	 0.672229	 0.703653	 0.500000 
S231	 0.657850	 0.757316	 1.000000 
S232	 0.657850	 0.757316	 0.000000 
S233	 0.589809	 0.825357	 1.000000 
S234	 0.589809	 0.825357	 0.000000 
Mo235	 0.561051	 0.932682	 0.500000 
Mo236	 0.629093	 0.864641	 0.500000 
S237	 0.614714	 0.918303	 1.000000 
S238	 0.614714	 0.918303	 0.000000 
S239	 0.546672	 0.986345	 1.000000 
S240	 0.546672	 0.986345	 0.000000 
Mo241	 0.776734	 0.127744	 0.500000 
S242	 0.830396	 0.113365	 1.000000 
S243	 0.830396	 0.113365	 0.000000 
S244	 0.855301	 0.206311	 1.000000 
S245	 0.855301	 0.206311	 0.000000 
Mo246	 0.826543	 0.313636	 0.500000 
Mo247	 0.894585	 0.245595	 0.500000 
S248	 0.880206	 0.299258	 1.000000 
S249	 0.880206	 0.299258	 0.000000 
S250	 0.812165	 0.367299	 1.000000 
S251	 0.812165	 0.367299	 0.000000 
Mo252	 0.783407	 0.474624	 0.500000 
Mo253	 0.851448	 0.406583	 0.500000 
S254	 0.837070	 0.460245	 1.000000 
S255	 0.837070	 0.460245	 0.000000 
S256	 0.769028	 0.528287	 1.000000 
S257	 0.769028	 0.528287	 0.000000 
Mo258	 0.740270	 0.635612	 0.500000 
Mo259	 0.808312	 0.567570	 0.500000 
S260	 0.793933	 0.621233	 1.000000 
S261	 0.793933	 0.621233	 0.000000 
S262	 0.725892	 0.689274	 1.000000 
S263	 0.725892	 0.689274	 0.000000 
Mo264	 0.697134	 0.796599	 0.500000 
Mo265	 0.765175	 0.728558	 0.500000 
S266	 0.750797	 0.782220	 1.000000 
S267	 0.750797	 0.782220	 0.000000 
S268	 0.682755	 0.850262	 1.000000 
S269	 0.682755	 0.850262	 0.000000 
Mo270	 0.653997	 0.957587	 0.500000 
Mo271	 0.722039	 0.889546	 0.500000 
S272	 0.707660	 0.943208	 1.000000 
S273	 0.707660	 0.943208	 0.000000 
Mo274	 0.869680	 0.152649	 0.500000 
S275	 0.923343	 0.138270	 1.000000 
S276	 0.923343	 0.138270	 0.000000 
S277	 0.948247	 0.231216	 1.000000 
S278	 0.948247	 0.231216	 0.000000 
Mo279	 0.919490	 0.338541	 0.500000 
Mo280	 0.987531	 0.270500	 0.500000 
S281	 0.973152	 0.324162	 1.000000 
S282	 0.973152	 0.324162	 0.000000 
S283	 0.905111	 0.392204	 1.000000 
S284	 0.905111	 0.392204	 0.000000 
Mo285	 0.876353	 0.499529	 0.500000 
Mo286	 0.944395	 0.431487	 0.500000 
S287	 0.930016	 0.485150	 1.000000 
S288	 0.930016	 0.485150	 0.000000 
S289	 0.861974	 0.553191	 1.000000 
S290	 0.861974	 0.553191	 0.000000 
Mo291	 0.833217	 0.660517	 0.500000 
Mo292	 0.901258	 0.592475	 0.500000 
S293	 0.886879	 0.646138	 1.000000 
S294	 0.886879	 0.646138	 0.000000 
S295	 0.818838	 0.714179	 1.000000 
S296	 0.818838	 0.714179	 0.000000 
Mo297	 0.790080	 0.821504	 0.500000 
Mo298	 0.858122	 0.753463	 0.500000 
S299	 0.843743	 0.807125	 1.000000 
S300	 0.843743	 0.807125	 0.000000 
S301	 0.775701	 0.875167	 1.000000 
S302	 0.775701	 0.875167	 0.000000 
Mo303	 0.746944	 0.982492	 0.500000 
Mo304	 0.814985	 0.914450	 0.500000 
S305	 0.800606	 0.968113	 1.000000 
S306	 0.800606	 0.968113	 0.000000 
Mo307	 0.962626	 0.177554	 0.500000 
Mo308	 0.151015	 0.046356	 0.500000 
S309	 0.136636	 0.100019	 1.000000 
S310	 0.136636	 0.100019	 0.000000 
S311	 0.998057	 0.417109	 1.000000 
S312	 0.998057	 0.417109	 0.000000 
Mo313	 0.969299	 0.524434	 0.500000 
Mo314	 0.107878	 0.207344	 0.500000 
S315	 0.093499	 0.261006	 1.000000 
S316	 0.093499	 0.261006	 0.000000 
S317	 0.954921	 0.578096	 1.000000 
S318	 0.954921	 0.578096	 0.000000 
Mo319	 0.926163	 0.685421	 0.500000 
Mo320	 0.064742	 0.368331	 0.500000 
S321	 0.050363	 0.421994	 1.000000 
S322	 0.050363	 0.421994	 0.000000 
S323	 0.911784	 0.739084	 1.000000 
S324	 0.911784	 0.739084	 0.000000 
Mo325	 0.883026	 0.846409	 0.500000 
Mo326	 0.021605	 0.529319	 0.500000 
S327	 0.007226	 0.582981	 1.000000 
S328	 0.007226	 0.582981	 0.000000 
S329	 0.868648	 0.900072	 1.000000 
S330	 0.868648	 0.900072	 0.000000 
#                 ---end-of-data-block---
