data_Single Layer of MoS2nx 10 ny 6 nz 1
_cell_length_a               32.423991
_cell_length_b               32.423991
_cell_length_c               3.080000
_cell_angle_alpha          90.000000
_cell_angle_beta           90.000000
_cell_angle_gamma          90.000000
_symmetry_cell_setting          Triclinic
_symmetry_space_group_name_H-M 'P 1' 
loop_
_atom_site_label
_atom_site_fract_x
_atom_site_fract_y
_atom_site_fract_z
Mo1	 0.134258	 0.059359	 0.500000 
S2	 0.187920	 0.044980	 1.000000 
S3	 0.187920	 0.044980	 0.000000 
S4	 0.119879	 0.113021	 1.000000 
S5	 0.119879	 0.113021	 0.000000 
Mo6	 0.091121	 0.220346	 0.500000 
Mo7	 0.159163	 0.152305	 0.500000 
S8	 0.144784	 0.205968	 1.000000 
S9	 0.144784	 0.205968	 0.000000 
S10	 0.076742	 0.274009	 1.000000 
S11	 0.076742	 0.274009	 0.000000 
Mo12	 0.047985	 0.381334	 0.500000 
Mo13	 0.116026	 0.313293	 0.500000 
S14	 0.101647	 0.366955	 1.000000 
S15	 0.101647	 0.366955	 0.000000 
S16	 0.033606	 0.434997	 1.000000 
S17	 0.033606	 0.434997	 0.000000 
Mo18	 0.004848	 0.542322	 0.500000 
Mo19	 0.072890	 0.474280	 0.500000 
S20	 0.058511	 0.527943	 1.000000 
S21	 0.058511	 0.527943	 0.000000 
Mo22	 0.029753	 0.635268	 0.500000 
S23	 0.015374	 0.688931	 1.000000 
S24	 0.015374	 0.688931	 0.000000 
Mo25	 0.227204	 0.084264	 0.500000 
Mo26	 0.295245	 0.016222	 0.500000 
S27	 0.280867	 0.069885	 1.000000 
S28	 0.280867	 0.069885	 0.000000 
S29	 0.212825	 0.137926	 1.000000 
S30	 0.212825	 0.137926	 0.000000 
Mo31	 0.184068	 0.245251	 0.500000 
Mo32	 0.252109	 0.177210	 0.500000 
S33	 0.237730	 0.230872	 1.000000 
S34	 0.237730	 0.230872	 0.000000 
S35	 0.169689	 0.298914	 1.000000 
S36	 0.169689	 0.298914	 0.000000 
Mo37	 0.140931	 0.406239	 0.500000 
Mo38	 0.208972	 0.338198	 0.500000 
S39	 0.194594	 0.391860	 1.000000 
S40	 0.194594	 0.391860	 0.000000 
S41	 0.126552	 0.459901	 1.000000 
S42	 0.126552	 0.459901	 0.000000 
Mo43	 0.097795	 0.567227	 0.500000 
Mo44	 0.165836	 0.499185	 0.500000 
S45	 0.151457	 0.552848	 1.000000 
S46	 0.151457	 0.552848	 0.000000 
S47	 0.083416	 0.620889	 1.000000 
S48	 0.083416	 0.620889	 0.000000 
Mo49	 0.054658	 0.728214	 0.500000 
Mo50	 0.122699	 0.660173	 0.500000 
S51	 0.108321	 0.713835	 1.000000 
S52	 0.108321	 0.713835	 0.000000 
S53	 0.040279	 0.781877	 1.000000 
S54	 0.040279	 0.781877	 0.000000 
Mo55	 0.079563	 0.821160	 0.500000 
S56	 0.065184	 0.874823	 1.000000 
S57	 0.065184	 0.874823	 0.000000 
S58	 0.348908	 0.001843	 1.000000 
S59	 0.348908	 0.001843	 0.000000 
Mo60	 0.320150	 0.109169	 0.500000 
Mo61	 0.388192	 0.041127	 0.500000 
S62	 0.373813	 0.094790	 1.000000 
S63	 0.373813	 0.094790	 0.000000 
S64	 0.305771	 0.162831	 1.000000 
S65	 0.305771	 0.162831	 0.000000 
Mo66	 0.277014	 0.270156	 0.500000 
Mo67	 0.345055	 0.202115	 0.500000 
S68	 0.330676	 0.255777	 1.000000 
S69	 0.330676	 0.255777	 0.000000 
S70	 0.262635	 0.323819	 1.000000 
S71	 0.262635	 0.323819	 0.000000 
Mo72	 0.233877	 0.431144	 0.500000 
Mo73	 0.301919	 0.363102	 0.500000 
S74	 0.287540	 0.416765	 1.000000 
S75	 0.287540	 0.416765	 0.000000 
S76	 0.219498	 0.484806	 1.000000 
S77	 0.219498	 0.484806	 0.000000 
Mo78	 0.190741	 0.592131	 0.500000 
Mo79	 0.258782	 0.524090	 0.500000 
S80	 0.244403	 0.577753	 1.000000 
S81	 0.244403	 0.577753	 0.000000 
S82	 0.176362	 0.645794	 1.000000 
S83	 0.176362	 0.645794	 0.000000 
Mo84	 0.147604	 0.753119	 0.500000 
Mo85	 0.215646	 0.685078	 0.500000 
S86	 0.201267	 0.738740	 1.000000 
S87	 0.201267	 0.738740	 0.000000 
S88	 0.133225	 0.806782	 1.000000 
S89	 0.133225	 0.806782	 0.000000 
Mo90	 0.172509	 0.846065	 0.500000 
S91	 0.158130	 0.899728	 1.000000 
S92	 0.158130	 0.899728	 0.000000 
S93	 0.441854	 0.026748	 1.000000 
S94	 0.441854	 0.026748	 0.000000 
Mo95	 0.413097	 0.134073	 0.500000 
Mo96	 0.481138	 0.066032	 0.500000 
S97	 0.466759	 0.119695	 1.000000 
S98	 0.466759	 0.119695	 0.000000 
S99	 0.398718	 0.187736	 1.000000 
S100	 0.398718	 0.187736	 0.000000 
Mo101	 0.369960	 0.295061	 0.500000 
Mo102	 0.438001	 0.227020	 0.500000 
S103	 0.423623	 0.280682	 1.000000 
S104	 0.423623	 0.280682	 0.000000 
S105	 0.355581	 0.348724	 1.000000 
S106	 0.355581	 0.348724	 0.000000 
Mo107	 0.326824	 0.456049	 0.500000 
Mo108	 0.394865	 0.388007	 0.500000 
S109	 0.380486	 0.441670	 1.000000 
S110	 0.380486	 0.441670	 0.000000 
S111	 0.312445	 0.509711	 1.000000 
S112	 0.312445	 0.509711	 0.000000 
Mo113	 0.283687	 0.617036	 0.500000 
Mo114	 0.351728	 0.548995	 0.500000 
S115	 0.337350	 0.602657	 1.000000 
S116	 0.337350	 0.602657	 0.000000 
S117	 0.269308	 0.670699	 1.000000 
S118	 0.269308	 0.670699	 0.000000 
Mo119	 0.240551	 0.778024	 0.500000 
Mo120	 0.308592	 0.709983	 0.500000 
S121	 0.294213	 0.763645	 1.000000 
S122	 0.294213	 0.763645	 0.000000 
S123	 0.226172	 0.831687	 1.000000 
S124	 0.226172	 0.831687	 0.000000 
Mo125	 0.265455	 0.870970	 0.500000 
S126	 0.251077	 0.924633	 1.000000 
S127	 0.251077	 0.924633	 0.000000 
S128	 0.534801	 0.051653	 1.000000 
S129	 0.534801	 0.051653	 0.000000 
Mo130	 0.506043	 0.158978	 0.500000 
Mo131	 0.574084	 0.090937	 0.500000 
S132	 0.559705	 0.144599	 1.000000 
S133	 0.559705	 0.144599	 0.000000 
S134	 0.491664	 0.212641	 1.000000 
S135	 0.491664	 0.212641	 0.000000 
Mo136	 0.462906	 0.319966	 0.500000 
Mo137	 0.530948	 0.251925	 0.500000 
S138	 0.516569	 0.305587	 1.000000 
S139	 0.516569	 0.305587	 0.000000 
S140	 0.448527	 0.373628	 1.000000 
S141	 0.448527	 0.373628	 0.000000 
Mo142	 0.419770	 0.480954	 0.500000 
Mo143	 0.487811	 0.412912	 0.500000 
S144	 0.473432	 0.466575	 1.000000 
S145	 0.473432	 0.466575	 0.000000 
S146	 0.405391	 0.534616	 1.000000 
S147	 0.405391	 0.534616	 0.000000 
Mo148	 0.376633	 0.641941	 0.500000 
Mo149	 0.444675	 0.573900	 0.500000 
S150	 0.430296	 0.627562	 1.000000 
S151	 0.430296	 0.627562	 0.000000 
S152	 0.362254	 0.695604	 1.000000 
S153	 0.362254	 0.695604	 0.000000 
Mo154	 0.333497	 0.802929	 0.500000 
Mo155	 0.401538	 0.734887	 0.500000 
S156	 0.387159	 0.788550	 1.000000 
S157	 0.387159	 0.788550	 0.000000 
S158	 0.319118	 0.856591	 1.000000 
S159	 0.319118	 0.856591	 0.000000 
Mo160	 0.358402	 0.895875	 0.500000 
S161	 0.344023	 0.949538	 1.000000 
S162	 0.344023	 0.949538	 0.000000 
S163	 0.627747	 0.076558	 1.000000 
S164	 0.627747	 0.076558	 0.000000 
Mo165	 0.598989	 0.183883	 0.500000 
Mo166	 0.667030	 0.115842	 0.500000 
S167	 0.652652	 0.169504	 1.000000 
S168	 0.652652	 0.169504	 0.000000 
S169	 0.584610	 0.237546	 1.000000 
S170	 0.584610	 0.237546	 0.000000 
Mo171	 0.555853	 0.344871	 0.500000 
Mo172	 0.623894	 0.276829	 0.500000 
S173	 0.609515	 0.330492	 1.000000 
S174	 0.609515	 0.330492	 0.000000 
S175	 0.541474	 0.398533	 1.000000 
S176	 0.541474	 0.398533	 0.000000 
Mo177	 0.512716	 0.505858	 0.500000 
Mo178	 0.580757	 0.437817	 0.500000 
S179	 0.566379	 0.491480	 1.000000 
S180	 0.566379	 0.491480	 0.000000 
S181	 0.498337	 0.559521	 1.000000 
S182	 0.498337	 0.559521	 0.000000 
Mo183	 0.469580	 0.666846	 0.500000 
Mo184	 0.537621	 0.598805	 0.500000 
S185	 0.523242	 0.652467	 1.000000 
S186	 0.523242	 0.652467	 0.000000 
S187	 0.455201	 0.720509	 1.000000 
S188	 0.455201	 0.720509	 0.000000 
Mo189	 0.426443	 0.827834	 0.500000 
Mo190	 0.494484	 0.759792	 0.500000 
S191	 0.480106	 0.813455	 1.000000 
S192	 0.480106	 0.813455	 0.000000 
S193	 0.412064	 0.881496	 1.000000 
S194	 0.412064	 0.881496	 0.000000 
Mo195	 0.642126	 0.022896	 0.500000 
Mo196	 0.451348	 0.920780	 0.500000 
S197	 0.436969	 0.974443	 1.000000 
S198	 0.436969	 0.974443	 0.000000 
S199	 0.720693	 0.101463	 1.000000 
S200	 0.720693	 0.101463	 0.000000 
Mo201	 0.691935	 0.208788	 0.500000 
Mo202	 0.759977	 0.140747	 0.500000 
S203	 0.745598	 0.194409	 1.000000 
S204	 0.745598	 0.194409	 0.000000 
S205	 0.677557	 0.262451	 1.000000 
S206	 0.677557	 0.262451	 0.000000 
Mo207	 0.648799	 0.369776	 0.500000 
Mo208	 0.716840	 0.301734	 0.500000 
S209	 0.702461	 0.355397	 1.000000 
S210	 0.702461	 0.355397	 0.000000 
S211	 0.634420	 0.423438	 1.000000 
S212	 0.634420	 0.423438	 0.000000 
Mo213	 0.605662	 0.530763	 0.500000 
Mo214	 0.673704	 0.462722	 0.500000 
S215	 0.659325	 0.516384	 1.000000 
S216	 0.659325	 0.516384	 0.000000 
S217	 0.591283	 0.584426	 1.000000 
S218	 0.591283	 0.584426	 0.000000 
Mo219	 0.562526	 0.691751	 0.500000 
Mo220	 0.630567	 0.623710	 0.500000 
S221	 0.616188	 0.677372	 1.000000 
S222	 0.616188	 0.677372	 0.000000 
S223	 0.548147	 0.745414	 1.000000 
S224	 0.548147	 0.745414	 0.000000 
Mo225	 0.519389	 0.852739	 0.500000 
Mo226	 0.587431	 0.784697	 0.500000 
S227	 0.573052	 0.838360	 1.000000 
S228	 0.573052	 0.838360	 0.000000 
S229	 0.505010	 0.906401	 1.000000 
S230	 0.505010	 0.906401	 0.000000 
Mo231	 0.735072	 0.047800	 0.500000 
Mo232	 0.544294	 0.945685	 0.500000 
S233	 0.529915	 0.999347	 1.000000 
S234	 0.529915	 0.999347	 0.000000 
S235	 0.813639	 0.126368	 1.000000 
S236	 0.813639	 0.126368	 0.000000 
Mo237	 0.784882	 0.233693	 0.500000 
Mo238	 0.852923	 0.165652	 0.500000 
S239	 0.838544	 0.219314	 1.000000 
S240	 0.838544	 0.219314	 0.000000 
S241	 0.770503	 0.287355	 1.000000 
S242	 0.770503	 0.287355	 0.000000 
Mo243	 0.741745	 0.394681	 0.500000 
Mo244	 0.809786	 0.326639	 0.500000 
S245	 0.795408	 0.380302	 1.000000 
S246	 0.795408	 0.380302	 0.000000 
S247	 0.727366	 0.448343	 1.000000 
S248	 0.727366	 0.448343	 0.000000 
Mo249	 0.698609	 0.555668	 0.500000 
Mo250	 0.766650	 0.487627	 0.500000 
S251	 0.752271	 0.541289	 1.000000 
S252	 0.752271	 0.541289	 0.000000 
S253	 0.684230	 0.609331	 1.000000 
S254	 0.684230	 0.609331	 0.000000 
Mo255	 0.655472	 0.716656	 0.500000 
Mo256	 0.723513	 0.648614	 0.500000 
S257	 0.709135	 0.702277	 1.000000 
S258	 0.709135	 0.702277	 0.000000 
S259	 0.641093	 0.770318	 1.000000 
S260	 0.641093	 0.770318	 0.000000 
Mo261	 0.612336	 0.877643	 0.500000 
Mo262	 0.680377	 0.809602	 0.500000 
S263	 0.665998	 0.863265	 1.000000 
S264	 0.665998	 0.863265	 0.000000 
S265	 0.597957	 0.931306	 1.000000 
S266	 0.597957	 0.931306	 0.000000 
Mo267	 0.828018	 0.072705	 0.500000 
Mo268	 0.637240	 0.970590	 0.500000 
S269	 0.906586	 0.151273	 1.000000 
S270	 0.906586	 0.151273	 0.000000 
Mo271	 0.877828	 0.258598	 0.500000 
Mo272	 0.945869	 0.190556	 0.500000 
S273	 0.931490	 0.244219	 1.000000 
S274	 0.931490	 0.244219	 0.000000 
S275	 0.863449	 0.312260	 1.000000 
S276	 0.863449	 0.312260	 0.000000 
Mo277	 0.834691	 0.419585	 0.500000 
Mo278	 0.902733	 0.351544	 0.500000 
S279	 0.888354	 0.405207	 1.000000 
S280	 0.888354	 0.405207	 0.000000 
S281	 0.820313	 0.473248	 1.000000 
S282	 0.820313	 0.473248	 0.000000 
Mo283	 0.791555	 0.580573	 0.500000 
Mo284	 0.859596	 0.512532	 0.500000 
S285	 0.845217	 0.566194	 1.000000 
S286	 0.845217	 0.566194	 0.000000 
S287	 0.777176	 0.634236	 1.000000 
S288	 0.777176	 0.634236	 0.000000 
Mo289	 0.748418	 0.741561	 0.500000 
Mo290	 0.816460	 0.673519	 0.500000 
S291	 0.802081	 0.727182	 1.000000 
S292	 0.802081	 0.727182	 0.000000 
S293	 0.734040	 0.795223	 1.000000 
S294	 0.734040	 0.795223	 0.000000 
Mo295	 0.705282	 0.902548	 0.500000 
Mo296	 0.773323	 0.834507	 0.500000 
S297	 0.758944	 0.888170	 1.000000 
S298	 0.758944	 0.888170	 0.000000 
S299	 0.690903	 0.956211	 1.000000 
S300	 0.690903	 0.956211	 0.000000 
Mo301	 0.920964	 0.097610	 0.500000 
Mo302	 0.730187	 0.995495	 0.500000 
S303	 0.999532	 0.176178	 1.000000 
S304	 0.999532	 0.176178	 0.000000 
Mo305	 0.970774	 0.283503	 0.500000 
S306	 0.956395	 0.337165	 1.000000 
S307	 0.956395	 0.337165	 0.000000 
Mo308	 0.927638	 0.444490	 0.500000 
Mo309	 0.995679	 0.376449	 0.500000 
S310	 0.981300	 0.430111	 1.000000 
S311	 0.981300	 0.430111	 0.000000 
S312	 0.913259	 0.498153	 1.000000 
S313	 0.913259	 0.498153	 0.000000 
Mo314	 0.884501	 0.605478	 0.500000 
Mo315	 0.952542	 0.537437	 0.500000 
S316	 0.938164	 0.591099	 1.000000 
S317	 0.938164	 0.591099	 0.000000 
S318	 0.870122	 0.659140	 1.000000 
S319	 0.870122	 0.659140	 0.000000 
Mo320	 0.841365	 0.766466	 0.500000 
Mo321	 0.909406	 0.698424	 0.500000 
S322	 0.895027	 0.752087	 1.000000 
S323	 0.895027	 0.752087	 0.000000 
S324	 0.826986	 0.820128	 1.000000 
S325	 0.826986	 0.820128	 0.000000 
Mo326	 0.798228	 0.927453	 0.500000 
Mo327	 0.866269	 0.859412	 0.500000 
S328	 0.851891	 0.913074	 1.000000 
S329	 0.851891	 0.913074	 0.000000 
S330	 0.783849	 0.981116	 1.000000 
S331	 0.783849	 0.981116	 0.000000 
#                 ---end-of-data-block---
