data_Single Layer of MoS2nx 10 ny 6 nz 1
_cell_length_a               32.423991
_cell_length_b               32.423991
_cell_length_c               3.080000
_cell_angle_alpha          90.000000
_cell_angle_beta           90.000000
_cell_angle_gamma          90.000000
_symmetry_cell_setting          Triclinic
_symmetry_space_group_name_H-M 'P 1' 
loop_
_atom_site_label
_atom_site_fract_x
_atom_site_fract_y
_atom_site_fract_z
Mo1	 0.215798	 0.038995	 0.500000 
S2	 0.271353	 0.038995	 1.000000 
S3	 0.271353	 0.038995	 0.000000 
S4	 0.188020	 0.087107	 1.000000 
S5	 0.188020	 0.087107	 0.000000 
Mo6	 0.132464	 0.183332	 0.500000 
Mo7	 0.215798	 0.135220	 0.500000 
S8	 0.188020	 0.183332	 1.000000 
S9	 0.188020	 0.183332	 0.000000 
S10	 0.104687	 0.231445	 1.000000 
S11	 0.104687	 0.231445	 0.000000 
Mo12	 0.049131	 0.327670	 0.500000 
Mo13	 0.132464	 0.279557	 0.500000 
S14	 0.104687	 0.327670	 1.000000 
S15	 0.104687	 0.327670	 0.000000 
S16	 0.021353	 0.375782	 1.000000 
S17	 0.021353	 0.375782	 0.000000 
Mo18	 0.049131	 0.423895	 0.500000 
S19	 0.021353	 0.472007	 1.000000 
S20	 0.021353	 0.472007	 0.000000 
Mo21	 0.299131	 0.087107	 0.500000 
Mo22	 0.382464	 0.038995	 0.500000 
S23	 0.354687	 0.087107	 1.000000 
S24	 0.354687	 0.087107	 0.000000 
S25	 0.271353	 0.135220	 1.000000 
S26	 0.271353	 0.135220	 0.000000 
Mo27	 0.215798	 0.231445	 0.500000 
Mo28	 0.299131	 0.183332	 0.500000 
S29	 0.271353	 0.231445	 1.000000 
S30	 0.271353	 0.231445	 0.000000 
S31	 0.188020	 0.279557	 1.000000 
S32	 0.188020	 0.279557	 0.000000 
Mo33	 0.132464	 0.375782	 0.500000 
Mo34	 0.215798	 0.327670	 0.500000 
S35	 0.188020	 0.375782	 1.000000 
S36	 0.188020	 0.375782	 0.000000 
S37	 0.104687	 0.423895	 1.000000 
S38	 0.104687	 0.423895	 0.000000 
Mo39	 0.049131	 0.520120	 0.500000 
Mo40	 0.132464	 0.472007	 0.500000 
S41	 0.104687	 0.520120	 1.000000 
S42	 0.104687	 0.520120	 0.000000 
S43	 0.021353	 0.568233	 1.000000 
S44	 0.021353	 0.568233	 0.000000 
Mo45	 0.049131	 0.616345	 0.500000 
S46	 0.021353	 0.664458	 1.000000 
S47	 0.021353	 0.664458	 0.000000 
S48	 0.438020	 0.038995	 1.000000 
S49	 0.438020	 0.038995	 0.000000 
Mo50	 0.382464	 0.135220	 0.500000 
Mo51	 0.465798	 0.087107	 0.500000 
S52	 0.438020	 0.135220	 1.000000 
S53	 0.438020	 0.135220	 0.000000 
S54	 0.354687	 0.183332	 1.000000 
S55	 0.354687	 0.183332	 0.000000 
Mo56	 0.299131	 0.279557	 0.500000 
Mo57	 0.382464	 0.231445	 0.500000 
S58	 0.354687	 0.279557	 1.000000 
S59	 0.354687	 0.279557	 0.000000 
S60	 0.271353	 0.327670	 1.000000 
S61	 0.271353	 0.327670	 0.000000 
Mo62	 0.215798	 0.423895	 0.500000 
Mo63	 0.299131	 0.375782	 0.500000 
S64	 0.271353	 0.423895	 1.000000 
S65	 0.271353	 0.423895	 0.000000 
S66	 0.188020	 0.472007	 1.000000 
S67	 0.188020	 0.472007	 0.000000 
Mo68	 0.132464	 0.568233	 0.500000 
Mo69	 0.215798	 0.520120	 0.500000 
S70	 0.188020	 0.568233	 1.000000 
S71	 0.188020	 0.568233	 0.000000 
S72	 0.104687	 0.616345	 1.000000 
S73	 0.104687	 0.616345	 0.000000 
Mo74	 0.049131	 0.712570	 0.500000 
Mo75	 0.132464	 0.664458	 0.500000 
S76	 0.104687	 0.712570	 1.000000 
S77	 0.104687	 0.712570	 0.000000 
S78	 0.021353	 0.760683	 1.000000 
S79	 0.021353	 0.760683	 0.000000 
Mo80	 0.049131	 0.808795	 0.500000 
S81	 0.521353	 0.087107	 1.000000 
S82	 0.521353	 0.087107	 0.000000 
Mo83	 0.465798	 0.183332	 0.500000 
Mo84	 0.549131	 0.135220	 0.500000 
S85	 0.521353	 0.183332	 1.000000 
S86	 0.521353	 0.183332	 0.000000 
S87	 0.438020	 0.231445	 1.000000 
S88	 0.438020	 0.231445	 0.000000 
Mo89	 0.382464	 0.327670	 0.500000 
Mo90	 0.465798	 0.279557	 0.500000 
S91	 0.438020	 0.327670	 1.000000 
S92	 0.438020	 0.327670	 0.000000 
S93	 0.354687	 0.375782	 1.000000 
S94	 0.354687	 0.375782	 0.000000 
Mo95	 0.299131	 0.472007	 0.500000 
Mo96	 0.382464	 0.423895	 0.500000 
S97	 0.354687	 0.472007	 1.000000 
S98	 0.354687	 0.472007	 0.000000 
S99	 0.271353	 0.520120	 1.000000 
S100	 0.271353	 0.520120	 0.000000 
Mo101	 0.215798	 0.616345	 0.500000 
Mo102	 0.299131	 0.568233	 0.500000 
S103	 0.271353	 0.616345	 1.000000 
S104	 0.271353	 0.616345	 0.000000 
S105	 0.188020	 0.664458	 1.000000 
S106	 0.188020	 0.664458	 0.000000 
Mo107	 0.132464	 0.760683	 0.500000 
Mo108	 0.215798	 0.712570	 0.500000 
S109	 0.188020	 0.760683	 1.000000 
S110	 0.188020	 0.760683	 0.000000 
S111	 0.104687	 0.808795	 1.000000 
S112	 0.104687	 0.808795	 0.000000 
Mo113	 0.549131	 0.038995	 0.500000 
Mo114	 0.132464	 0.856908	 0.500000 
S115	 0.604687	 0.038995	 1.000000 
S116	 0.604687	 0.038995	 0.000000 
S117	 0.604687	 0.135220	 1.000000 
S118	 0.604687	 0.135220	 0.000000 
Mo119	 0.549131	 0.231445	 0.500000 
Mo120	 0.632464	 0.183332	 0.500000 
S121	 0.604687	 0.231445	 1.000000 
S122	 0.604687	 0.231445	 0.000000 
S123	 0.521353	 0.279557	 1.000000 
S124	 0.521353	 0.279557	 0.000000 
Mo125	 0.465798	 0.375782	 0.500000 
Mo126	 0.549131	 0.327670	 0.500000 
S127	 0.521353	 0.375782	 1.000000 
S128	 0.521353	 0.375782	 0.000000 
S129	 0.438020	 0.423895	 1.000000 
S130	 0.438020	 0.423895	 0.000000 
Mo131	 0.382464	 0.520120	 0.500000 
Mo132	 0.465798	 0.472007	 0.500000 
S133	 0.438020	 0.520120	 1.000000 
S134	 0.438020	 0.520120	 0.000000 
S135	 0.354687	 0.568233	 1.000000 
S136	 0.354687	 0.568233	 0.000000 
Mo137	 0.299131	 0.664458	 0.500000 
Mo138	 0.382464	 0.616345	 0.500000 
S139	 0.354687	 0.664458	 1.000000 
S140	 0.354687	 0.664458	 0.000000 
S141	 0.271353	 0.712570	 1.000000 
S142	 0.271353	 0.712570	 0.000000 
Mo143	 0.215798	 0.808795	 0.500000 
Mo144	 0.299131	 0.760683	 0.500000 
S145	 0.271353	 0.808795	 1.000000 
S146	 0.271353	 0.808795	 0.000000 
S147	 0.188020	 0.856908	 1.000000 
S148	 0.188020	 0.856908	 0.000000 
Mo149	 0.632464	 0.087107	 0.500000 
Mo150	 0.215798	 0.905020	 0.500000 
S151	 0.688020	 0.087107	 1.000000 
S152	 0.688020	 0.087107	 0.000000 
S153	 0.688020	 0.183332	 1.000000 
S154	 0.688020	 0.183332	 0.000000 
Mo155	 0.632464	 0.279557	 0.500000 
Mo156	 0.715798	 0.231445	 0.500000 
S157	 0.688020	 0.279557	 1.000000 
S158	 0.688020	 0.279557	 0.000000 
S159	 0.604687	 0.327670	 1.000000 
S160	 0.604687	 0.327670	 0.000000 
Mo161	 0.549131	 0.423895	 0.500000 
Mo162	 0.632464	 0.375782	 0.500000 
S163	 0.604687	 0.423895	 1.000000 
S164	 0.604687	 0.423895	 0.000000 
S165	 0.521353	 0.472007	 1.000000 
S166	 0.521353	 0.472007	 0.000000 
Mo167	 0.465798	 0.568233	 0.500000 
Mo168	 0.549131	 0.520120	 0.500000 
S169	 0.521353	 0.568233	 1.000000 
S170	 0.521353	 0.568233	 0.000000 
S171	 0.438020	 0.616345	 1.000000 
S172	 0.438020	 0.616345	 0.000000 
Mo173	 0.382464	 0.712570	 0.500000 
Mo174	 0.465798	 0.664458	 0.500000 
S175	 0.438020	 0.712570	 1.000000 
S176	 0.438020	 0.712570	 0.000000 
S177	 0.354687	 0.760683	 1.000000 
S178	 0.354687	 0.760683	 0.000000 
Mo179	 0.299131	 0.856908	 0.500000 
Mo180	 0.382464	 0.808795	 0.500000 
S181	 0.354687	 0.856908	 1.000000 
S182	 0.354687	 0.856908	 0.000000 
S183	 0.271353	 0.905020	 1.000000 
S184	 0.271353	 0.905020	 0.000000 
Mo185	 0.715798	 0.135220	 0.500000 
Mo186	 0.299131	 0.953133	 0.500000 
S187	 0.771353	 0.135220	 1.000000 
S188	 0.771353	 0.135220	 0.000000 
S189	 0.771353	 0.231445	 1.000000 
S190	 0.771353	 0.231445	 0.000000 
Mo191	 0.715798	 0.327670	 0.500000 
Mo192	 0.799131	 0.279557	 0.500000 
S193	 0.771353	 0.327670	 1.000000 
S194	 0.771353	 0.327670	 0.000000 
S195	 0.688020	 0.375782	 1.000000 
S196	 0.688020	 0.375782	 0.000000 
Mo197	 0.632464	 0.472007	 0.500000 
Mo198	 0.715798	 0.423895	 0.500000 
S199	 0.688020	 0.472007	 1.000000 
S200	 0.688020	 0.472007	 0.000000 
S201	 0.604687	 0.520120	 1.000000 
S202	 0.604687	 0.520120	 0.000000 
Mo203	 0.549131	 0.616345	 0.500000 
Mo204	 0.632464	 0.568233	 0.500000 
S205	 0.604687	 0.616345	 1.000000 
S206	 0.604687	 0.616345	 0.000000 
S207	 0.521353	 0.664458	 1.000000 
S208	 0.521353	 0.664458	 0.000000 
Mo209	 0.465798	 0.760683	 0.500000 
Mo210	 0.549131	 0.712570	 0.500000 
S211	 0.521353	 0.760683	 1.000000 
S212	 0.521353	 0.760683	 0.000000 
S213	 0.438020	 0.808795	 1.000000 
S214	 0.438020	 0.808795	 0.000000 
Mo215	 0.382464	 0.905020	 0.500000 
Mo216	 0.465798	 0.856908	 0.500000 
S217	 0.438020	 0.905020	 1.000000 
S218	 0.438020	 0.905020	 0.000000 
S219	 0.354687	 0.953133	 1.000000 
S220	 0.354687	 0.953133	 0.000000 
Mo221	 0.799131	 0.183332	 0.500000 
S222	 0.854687	 0.183332	 1.000000 
S223	 0.854687	 0.183332	 0.000000 
S224	 0.854687	 0.279557	 1.000000 
S225	 0.854687	 0.279557	 0.000000 
Mo226	 0.799131	 0.375782	 0.500000 
Mo227	 0.882464	 0.327670	 0.500000 
S228	 0.854687	 0.375782	 1.000000 
S229	 0.854687	 0.375782	 0.000000 
S230	 0.771353	 0.423895	 1.000000 
S231	 0.771353	 0.423895	 0.000000 
Mo232	 0.715798	 0.520120	 0.500000 
Mo233	 0.799131	 0.472007	 0.500000 
S234	 0.771353	 0.520120	 1.000000 
S235	 0.771353	 0.520120	 0.000000 
S236	 0.688020	 0.568233	 1.000000 
S237	 0.688020	 0.568233	 0.000000 
Mo238	 0.632464	 0.664458	 0.500000 
Mo239	 0.715798	 0.616345	 0.500000 
S240	 0.688020	 0.664458	 1.000000 
S241	 0.688020	 0.664458	 0.000000 
S242	 0.604687	 0.712570	 1.000000 
S243	 0.604687	 0.712570	 0.000000 
Mo244	 0.549131	 0.808795	 0.500000 
Mo245	 0.632464	 0.760683	 0.500000 
S246	 0.604687	 0.808795	 1.000000 
S247	 0.604687	 0.808795	 0.000000 
S248	 0.521353	 0.856908	 1.000000 
S249	 0.521353	 0.856908	 0.000000 
Mo250	 0.465798	 0.953133	 0.500000 
Mo251	 0.549131	 0.905020	 0.500000 
S252	 0.521353	 0.953133	 1.000000 
S253	 0.521353	 0.953133	 0.000000 
Mo254	 0.882464	 0.231445	 0.500000 
S255	 0.938020	 0.231445	 1.000000 
S256	 0.938020	 0.231445	 0.000000 
S257	 0.938020	 0.327670	 1.000000 
S258	 0.938020	 0.327670	 0.000000 
Mo259	 0.882464	 0.423895	 0.500000 
Mo260	 0.965798	 0.375782	 0.500000 
S261	 0.938020	 0.423895	 1.000000 
S262	 0.938020	 0.423895	 0.000000 
S263	 0.854687	 0.472007	 1.000000 
S264	 0.854687	 0.472007	 0.000000 
Mo265	 0.799131	 0.568233	 0.500000 
Mo266	 0.882464	 0.520120	 0.500000 
S267	 0.854687	 0.568233	 1.000000 
S268	 0.854687	 0.568233	 0.000000 
S269	 0.771353	 0.616345	 1.000000 
S270	 0.771353	 0.616345	 0.000000 
Mo271	 0.715798	 0.712570	 0.500000 
Mo272	 0.799131	 0.664458	 0.500000 
S273	 0.771353	 0.712570	 1.000000 
S274	 0.771353	 0.712570	 0.000000 
S275	 0.688020	 0.760683	 1.000000 
S276	 0.688020	 0.760683	 0.000000 
Mo277	 0.632464	 0.856908	 0.500000 
Mo278	 0.715798	 0.808795	 0.500000 
S279	 0.688020	 0.856908	 1.000000 
S280	 0.688020	 0.856908	 0.000000 
S281	 0.604687	 0.905020	 1.000000 
S282	 0.604687	 0.905020	 0.000000 
Mo283	 0.632464	 0.953133	 0.500000 
Mo284	 0.965798	 0.279557	 0.500000 
Mo285	 0.965798	 0.472007	 0.500000 
S286	 0.938020	 0.520120	 1.000000 
S287	 0.938020	 0.520120	 0.000000 
Mo288	 0.882464	 0.616345	 0.500000 
Mo289	 0.965798	 0.568233	 0.500000 
S290	 0.938020	 0.616345	 1.000000 
S291	 0.938020	 0.616345	 0.000000 
S292	 0.854687	 0.664458	 1.000000 
S293	 0.854687	 0.664458	 0.000000 
Mo294	 0.799131	 0.760683	 0.500000 
Mo295	 0.882464	 0.712570	 0.500000 
S296	 0.854687	 0.760683	 1.000000 
S297	 0.854687	 0.760683	 0.000000 
S298	 0.771353	 0.808795	 1.000000 
S299	 0.771353	 0.808795	 0.000000 
Mo300	 0.715798	 0.905020	 0.500000 
Mo301	 0.799131	 0.856908	 0.500000 
S302	 0.771353	 0.905020	 1.000000 
S303	 0.771353	 0.905020	 0.000000 
S304	 0.688020	 0.953133	 1.000000 
S305	 0.688020	 0.953133	 0.000000 
#                 ---end-of-data-block---
