data_Single Layer of MoS2nx 10 ny 6 nz 1
_cell_length_a               32.423991
_cell_length_b               32.423991
_cell_length_c               3.080000
_cell_angle_alpha          90.000000
_cell_angle_beta           90.000000
_cell_angle_gamma          90.000000
_symmetry_cell_setting          Triclinic
_symmetry_space_group_name_H-M 'P 1' 
loop_
_atom_site_label
_atom_site_fract_x
_atom_site_fract_y
_atom_site_fract_z
Mo1	 0.299937	 0.040688	 0.500000 
S2	 0.355493	 0.040688	 1.000000 
S3	 0.355493	 0.040688	 0.000000 
S4	 0.272159	 0.088800	 1.000000 
S5	 0.272159	 0.088800	 0.000000 
Mo6	 0.216604	 0.185025	 0.500000 
Mo7	 0.299937	 0.136913	 0.500000 
S8	 0.272159	 0.185025	 1.000000 
S9	 0.272159	 0.185025	 0.000000 
S10	 0.188826	 0.233138	 1.000000 
S11	 0.188826	 0.233138	 0.000000 
Mo12	 0.133270	 0.329363	 0.500000 
Mo13	 0.216604	 0.281250	 0.500000 
S14	 0.188826	 0.329363	 1.000000 
S15	 0.188826	 0.329363	 0.000000 
S16	 0.105493	 0.377475	 1.000000 
S17	 0.105493	 0.377475	 0.000000 
Mo18	 0.049937	 0.473700	 0.500000 
Mo19	 0.133270	 0.425588	 0.500000 
S20	 0.105493	 0.473700	 1.000000 
S21	 0.105493	 0.473700	 0.000000 
S22	 0.022159	 0.521813	 1.000000 
S23	 0.022159	 0.521813	 0.000000 
Mo24	 0.049937	 0.569925	 0.500000 
S25	 0.022159	 0.618038	 1.000000 
S26	 0.022159	 0.618038	 0.000000 
Mo27	 0.383270	 0.088800	 0.500000 
Mo28	 0.466604	 0.040688	 0.500000 
S29	 0.438826	 0.088800	 1.000000 
S30	 0.438826	 0.088800	 0.000000 
S31	 0.355493	 0.136913	 1.000000 
S32	 0.355493	 0.136913	 0.000000 
Mo33	 0.299937	 0.233138	 0.500000 
Mo34	 0.383270	 0.185025	 0.500000 
S35	 0.355493	 0.233138	 1.000000 
S36	 0.355493	 0.233138	 0.000000 
S37	 0.272159	 0.281250	 1.000000 
S38	 0.272159	 0.281250	 0.000000 
Mo39	 0.216604	 0.377475	 0.500000 
Mo40	 0.299937	 0.329363	 0.500000 
S41	 0.272159	 0.377475	 1.000000 
S42	 0.272159	 0.377475	 0.000000 
S43	 0.188826	 0.425588	 1.000000 
S44	 0.188826	 0.425588	 0.000000 
Mo45	 0.133270	 0.521813	 0.500000 
Mo46	 0.216604	 0.473700	 0.500000 
S47	 0.188826	 0.521813	 1.000000 
S48	 0.188826	 0.521813	 0.000000 
S49	 0.105493	 0.569925	 1.000000 
S50	 0.105493	 0.569925	 0.000000 
Mo51	 0.049937	 0.666150	 0.500000 
Mo52	 0.133270	 0.618038	 0.500000 
S53	 0.105493	 0.666150	 1.000000 
S54	 0.105493	 0.666150	 0.000000 
S55	 0.022159	 0.714263	 1.000000 
S56	 0.022159	 0.714263	 0.000000 
Mo57	 0.049937	 0.762375	 0.500000 
S58	 0.522159	 0.040688	 1.000000 
S59	 0.522159	 0.040688	 0.000000 
Mo60	 0.466604	 0.136913	 0.500000 
Mo61	 0.549937	 0.088800	 0.500000 
S62	 0.522159	 0.136913	 1.000000 
S63	 0.522159	 0.136913	 0.000000 
S64	 0.438826	 0.185025	 1.000000 
S65	 0.438826	 0.185025	 0.000000 
Mo66	 0.383270	 0.281250	 0.500000 
Mo67	 0.466604	 0.233138	 0.500000 
S68	 0.438826	 0.281250	 1.000000 
S69	 0.438826	 0.281250	 0.000000 
S70	 0.355493	 0.329363	 1.000000 
S71	 0.355493	 0.329363	 0.000000 
Mo72	 0.299937	 0.425588	 0.500000 
Mo73	 0.383270	 0.377475	 0.500000 
S74	 0.355493	 0.425588	 1.000000 
S75	 0.355493	 0.425588	 0.000000 
S76	 0.272159	 0.473700	 1.000000 
S77	 0.272159	 0.473700	 0.000000 
Mo78	 0.216604	 0.569925	 0.500000 
Mo79	 0.299937	 0.521813	 0.500000 
S80	 0.272159	 0.569925	 1.000000 
S81	 0.272159	 0.569925	 0.000000 
S82	 0.188826	 0.618038	 1.000000 
S83	 0.188826	 0.618038	 0.000000 
Mo84	 0.133270	 0.714263	 0.500000 
Mo85	 0.216604	 0.666150	 0.500000 
S86	 0.188826	 0.714263	 1.000000 
S87	 0.188826	 0.714263	 0.000000 
S88	 0.105493	 0.762375	 1.000000 
S89	 0.105493	 0.762375	 0.000000 
Mo90	 0.133270	 0.810488	 0.500000 
S91	 0.605493	 0.088800	 1.000000 
S92	 0.605493	 0.088800	 0.000000 
Mo93	 0.549937	 0.185025	 0.500000 
Mo94	 0.633270	 0.136913	 0.500000 
S95	 0.605493	 0.185025	 1.000000 
S96	 0.605493	 0.185025	 0.000000 
S97	 0.522159	 0.233138	 1.000000 
S98	 0.522159	 0.233138	 0.000000 
Mo99	 0.466604	 0.329363	 0.500000 
Mo100	 0.549937	 0.281250	 0.500000 
S101	 0.522159	 0.329363	 1.000000 
S102	 0.522159	 0.329363	 0.000000 
S103	 0.438826	 0.377475	 1.000000 
S104	 0.438826	 0.377475	 0.000000 
Mo105	 0.383270	 0.473700	 0.500000 
Mo106	 0.466604	 0.425588	 0.500000 
S107	 0.438826	 0.473700	 1.000000 
S108	 0.438826	 0.473700	 0.000000 
S109	 0.355493	 0.521813	 1.000000 
S110	 0.355493	 0.521813	 0.000000 
Mo111	 0.299937	 0.618038	 0.500000 
Mo112	 0.383270	 0.569925	 0.500000 
S113	 0.355493	 0.618038	 1.000000 
S114	 0.355493	 0.618038	 0.000000 
S115	 0.272159	 0.666150	 1.000000 
S116	 0.272159	 0.666150	 0.000000 
Mo117	 0.216604	 0.762375	 0.500000 
Mo118	 0.299937	 0.714263	 0.500000 
S119	 0.272159	 0.762375	 1.000000 
S120	 0.272159	 0.762375	 0.000000 
S121	 0.188826	 0.810488	 1.000000 
S122	 0.188826	 0.810488	 0.000000 
Mo123	 0.633270	 0.040688	 0.500000 
Mo124	 0.216604	 0.858600	 0.500000 
S125	 0.688826	 0.040688	 1.000000 
S126	 0.688826	 0.040688	 0.000000 
S127	 0.688826	 0.136913	 1.000000 
S128	 0.688826	 0.136913	 0.000000 
Mo129	 0.633270	 0.233138	 0.500000 
Mo130	 0.716604	 0.185025	 0.500000 
S131	 0.688826	 0.233138	 1.000000 
S132	 0.688826	 0.233138	 0.000000 
S133	 0.605493	 0.281250	 1.000000 
S134	 0.605493	 0.281250	 0.000000 
Mo135	 0.549937	 0.377475	 0.500000 
Mo136	 0.633270	 0.329363	 0.500000 
S137	 0.605493	 0.377475	 1.000000 
S138	 0.605493	 0.377475	 0.000000 
S139	 0.522159	 0.425588	 1.000000 
S140	 0.522159	 0.425588	 0.000000 
Mo141	 0.466604	 0.521813	 0.500000 
Mo142	 0.549937	 0.473700	 0.500000 
S143	 0.522159	 0.521813	 1.000000 
S144	 0.522159	 0.521813	 0.000000 
S145	 0.438826	 0.569925	 1.000000 
S146	 0.438826	 0.569925	 0.000000 
Mo147	 0.383270	 0.666150	 0.500000 
Mo148	 0.466604	 0.618038	 0.500000 
S149	 0.438826	 0.666150	 1.000000 
S150	 0.438826	 0.666150	 0.000000 
S151	 0.355493	 0.714263	 1.000000 
S152	 0.355493	 0.714263	 0.000000 
Mo153	 0.299937	 0.810488	 0.500000 
Mo154	 0.383270	 0.762375	 0.500000 
S155	 0.355493	 0.810488	 1.000000 
S156	 0.355493	 0.810488	 0.000000 
S157	 0.272159	 0.858600	 1.000000 
S158	 0.272159	 0.858600	 0.000000 
Mo159	 0.716604	 0.088800	 0.500000 
Mo160	 0.299937	 0.906713	 0.500000 
S161	 0.772159	 0.088800	 1.000000 
S162	 0.772159	 0.088800	 0.000000 
S163	 0.772159	 0.185025	 1.000000 
S164	 0.772159	 0.185025	 0.000000 
Mo165	 0.716604	 0.281250	 0.500000 
Mo166	 0.799937	 0.233138	 0.500000 
S167	 0.772159	 0.281250	 1.000000 
S168	 0.772159	 0.281250	 0.000000 
S169	 0.688826	 0.329363	 1.000000 
S170	 0.688826	 0.329363	 0.000000 
Mo171	 0.633270	 0.425588	 0.500000 
Mo172	 0.716604	 0.377475	 0.500000 
S173	 0.688826	 0.425588	 1.000000 
S174	 0.688826	 0.425588	 0.000000 
S175	 0.605493	 0.473700	 1.000000 
S176	 0.605493	 0.473700	 0.000000 
Mo177	 0.549937	 0.569925	 0.500000 
Mo178	 0.633270	 0.521813	 0.500000 
S179	 0.605493	 0.569925	 1.000000 
S180	 0.605493	 0.569925	 0.000000 
S181	 0.522159	 0.618038	 1.000000 
S182	 0.522159	 0.618038	 0.000000 
Mo183	 0.466604	 0.714263	 0.500000 
Mo184	 0.549937	 0.666150	 0.500000 
S185	 0.522159	 0.714263	 1.000000 
S186	 0.522159	 0.714263	 0.000000 
S187	 0.438826	 0.762375	 1.000000 
S188	 0.438826	 0.762375	 0.000000 
Mo189	 0.383270	 0.858600	 0.500000 
Mo190	 0.466604	 0.810488	 0.500000 
S191	 0.438826	 0.858600	 1.000000 
S192	 0.438826	 0.858600	 0.000000 
S193	 0.355493	 0.906713	 1.000000 
S194	 0.355493	 0.906713	 0.000000 
Mo195	 0.799937	 0.136913	 0.500000 
Mo196	 0.383270	 0.954825	 0.500000 
S197	 0.855493	 0.136913	 1.000000 
S198	 0.855493	 0.136913	 0.000000 
S199	 0.855493	 0.233138	 1.000000 
S200	 0.855493	 0.233138	 0.000000 
Mo201	 0.799937	 0.329363	 0.500000 
Mo202	 0.883270	 0.281250	 0.500000 
S203	 0.855493	 0.329363	 1.000000 
S204	 0.855493	 0.329363	 0.000000 
S205	 0.772159	 0.377475	 1.000000 
S206	 0.772159	 0.377475	 0.000000 
Mo207	 0.716604	 0.473700	 0.500000 
Mo208	 0.799937	 0.425588	 0.500000 
S209	 0.772159	 0.473700	 1.000000 
S210	 0.772159	 0.473700	 0.000000 
S211	 0.688826	 0.521813	 1.000000 
S212	 0.688826	 0.521813	 0.000000 
Mo213	 0.633270	 0.618038	 0.500000 
Mo214	 0.716604	 0.569925	 0.500000 
S215	 0.688826	 0.618038	 1.000000 
S216	 0.688826	 0.618038	 0.000000 
S217	 0.605493	 0.666150	 1.000000 
S218	 0.605493	 0.666150	 0.000000 
Mo219	 0.549937	 0.762375	 0.500000 
Mo220	 0.633270	 0.714263	 0.500000 
S221	 0.605493	 0.762375	 1.000000 
S222	 0.605493	 0.762375	 0.000000 
S223	 0.522159	 0.810488	 1.000000 
S224	 0.522159	 0.810488	 0.000000 
Mo225	 0.466604	 0.906713	 0.500000 
Mo226	 0.549937	 0.858600	 0.500000 
S227	 0.522159	 0.906713	 1.000000 
S228	 0.522159	 0.906713	 0.000000 
S229	 0.438826	 0.954825	 1.000000 
S230	 0.438826	 0.954825	 0.000000 
Mo231	 0.883270	 0.185025	 0.500000 
S232	 0.938826	 0.185025	 1.000000 
S233	 0.938826	 0.185025	 0.000000 
S234	 0.938826	 0.281250	 1.000000 
S235	 0.938826	 0.281250	 0.000000 
Mo236	 0.883270	 0.377475	 0.500000 
Mo237	 0.966604	 0.329363	 0.500000 
S238	 0.938826	 0.377475	 1.000000 
S239	 0.938826	 0.377475	 0.000000 
S240	 0.855493	 0.425588	 1.000000 
S241	 0.855493	 0.425588	 0.000000 
Mo242	 0.799937	 0.521813	 0.500000 
Mo243	 0.883270	 0.473700	 0.500000 
S244	 0.855493	 0.521813	 1.000000 
S245	 0.855493	 0.521813	 0.000000 
S246	 0.772159	 0.569925	 1.000000 
S247	 0.772159	 0.569925	 0.000000 
Mo248	 0.716604	 0.666150	 0.500000 
Mo249	 0.799937	 0.618038	 0.500000 
S250	 0.772159	 0.666150	 1.000000 
S251	 0.772159	 0.666150	 0.000000 
S252	 0.688826	 0.714263	 1.000000 
S253	 0.688826	 0.714263	 0.000000 
Mo254	 0.633270	 0.810488	 0.500000 
Mo255	 0.716604	 0.762375	 0.500000 
S256	 0.688826	 0.810488	 1.000000 
S257	 0.688826	 0.810488	 0.000000 
S258	 0.605493	 0.858600	 1.000000 
S259	 0.605493	 0.858600	 0.000000 
Mo260	 0.549937	 0.954825	 0.500000 
Mo261	 0.633270	 0.906713	 0.500000 
S262	 0.605493	 0.954825	 1.000000 
S263	 0.605493	 0.954825	 0.000000 
Mo264	 0.966604	 0.233138	 0.500000 
Mo265	 0.966604	 0.425588	 0.500000 
S266	 0.938826	 0.473700	 1.000000 
S267	 0.938826	 0.473700	 0.000000 
Mo268	 0.883270	 0.569925	 0.500000 
Mo269	 0.966604	 0.521813	 0.500000 
S270	 0.938826	 0.569925	 1.000000 
S271	 0.938826	 0.569925	 0.000000 
S272	 0.855493	 0.618038	 1.000000 
S273	 0.855493	 0.618038	 0.000000 
Mo274	 0.799937	 0.714263	 0.500000 
Mo275	 0.883270	 0.666150	 0.500000 
S276	 0.855493	 0.714263	 1.000000 
S277	 0.855493	 0.714263	 0.000000 
S278	 0.772159	 0.762375	 1.000000 
S279	 0.772159	 0.762375	 0.000000 
Mo280	 0.716604	 0.858600	 0.500000 
Mo281	 0.799937	 0.810488	 0.500000 
S282	 0.772159	 0.858600	 1.000000 
S283	 0.772159	 0.858600	 0.000000 
S284	 0.688826	 0.906713	 1.000000 
S285	 0.688826	 0.906713	 0.000000 
Mo286	 0.716604	 0.954825	 0.500000 
Mo287	 0.966604	 0.618038	 0.500000 
Mo288	 0.216604	 0.088800	 0.500000 
S289	 0.188826	 0.136913	 1.000000 
S290	 0.188826	 0.136913	 0.000000 
S291	 0.938826	 0.666150	 1.000000 
S292	 0.938826	 0.666150	 0.000000 
Mo293	 0.883270	 0.762375	 0.500000 
Mo294	 0.133270	 0.233138	 0.500000 
S295	 0.105493	 0.281250	 1.000000 
S296	 0.105493	 0.281250	 0.000000 
S297	 0.855493	 0.810488	 1.000000 
S298	 0.855493	 0.810488	 0.000000 
Mo299	 0.799937	 0.906713	 0.500000 
Mo300	 0.049937	 0.377475	 0.500000 
S301	 0.022159	 0.425588	 1.000000 
S302	 0.022159	 0.425588	 0.000000 
S303	 0.772159	 0.954825	 1.000000 
S304	 0.772159	 0.954825	 0.000000 
#                 ---end-of-data-block---
