data_Single Layer of MoS2nx 10 ny 6 nz 1
_cell_length_a               32.423991
_cell_length_b               32.423991
_cell_length_c               3.080000
_cell_angle_alpha          90.000000
_cell_angle_beta           90.000000
_cell_angle_gamma          90.000000
_symmetry_cell_setting          Triclinic
_symmetry_space_group_name_H-M 'P 1' 
loop_
_atom_site_label
_atom_site_fract_x
_atom_site_fract_y
_atom_site_fract_z
Mo1	 0.300070	 0.071932	 0.500000 
Mo2	 0.383403	 0.023819	 0.500000 
S3	 0.355625	 0.071932	 1.000000 
S4	 0.355625	 0.071932	 0.000000 
S5	 0.272292	 0.120044	 1.000000 
S6	 0.272292	 0.120044	 0.000000 
Mo7	 0.216736	 0.216269	 0.500000 
Mo8	 0.300070	 0.168157	 0.500000 
S9	 0.272292	 0.216269	 1.000000 
S10	 0.272292	 0.216269	 0.000000 
S11	 0.188959	 0.264382	 1.000000 
S12	 0.188959	 0.264382	 0.000000 
Mo13	 0.133403	 0.360607	 0.500000 
Mo14	 0.216736	 0.312494	 0.500000 
S15	 0.188959	 0.360607	 1.000000 
S16	 0.188959	 0.360607	 0.000000 
S17	 0.105625	 0.408719	 1.000000 
S18	 0.105625	 0.408719	 0.000000 
Mo19	 0.050070	 0.504944	 0.500000 
Mo20	 0.133403	 0.456832	 0.500000 
S21	 0.105625	 0.504944	 1.000000 
S22	 0.105625	 0.504944	 0.000000 
S23	 0.022292	 0.553057	 1.000000 
S24	 0.022292	 0.553057	 0.000000 
Mo25	 0.050070	 0.601169	 0.500000 
S26	 0.022292	 0.649282	 1.000000 
S27	 0.022292	 0.649282	 0.000000 
S28	 0.438959	 0.023819	 1.000000 
S29	 0.438959	 0.023819	 0.000000 
Mo30	 0.383403	 0.120044	 0.500000 
Mo31	 0.466736	 0.071932	 0.500000 
S32	 0.438959	 0.120044	 1.000000 
S33	 0.438959	 0.120044	 0.000000 
S34	 0.355625	 0.168157	 1.000000 
S35	 0.355625	 0.168157	 0.000000 
Mo36	 0.300070	 0.264382	 0.500000 
Mo37	 0.383403	 0.216269	 0.500000 
S38	 0.355625	 0.264382	 1.000000 
S39	 0.355625	 0.264382	 0.000000 
S40	 0.272292	 0.312494	 1.000000 
S41	 0.272292	 0.312494	 0.000000 
Mo42	 0.216736	 0.408719	 0.500000 
Mo43	 0.300070	 0.360607	 0.500000 
S44	 0.272292	 0.408719	 1.000000 
S45	 0.272292	 0.408719	 0.000000 
S46	 0.188959	 0.456832	 1.000000 
S47	 0.188959	 0.456832	 0.000000 
Mo48	 0.133403	 0.553057	 0.500000 
Mo49	 0.216736	 0.504944	 0.500000 
S50	 0.188959	 0.553057	 1.000000 
S51	 0.188959	 0.553057	 0.000000 
S52	 0.105625	 0.601169	 1.000000 
S53	 0.105625	 0.601169	 0.000000 
Mo54	 0.050070	 0.697394	 0.500000 
Mo55	 0.133403	 0.649282	 0.500000 
S56	 0.105625	 0.697394	 1.000000 
S57	 0.105625	 0.697394	 0.000000 
S58	 0.022292	 0.745507	 1.000000 
S59	 0.022292	 0.745507	 0.000000 
Mo60	 0.050070	 0.793619	 0.500000 
S61	 0.522292	 0.071932	 1.000000 
S62	 0.522292	 0.071932	 0.000000 
Mo63	 0.466736	 0.168157	 0.500000 
Mo64	 0.550070	 0.120044	 0.500000 
S65	 0.522292	 0.168157	 1.000000 
S66	 0.522292	 0.168157	 0.000000 
S67	 0.438959	 0.216269	 1.000000 
S68	 0.438959	 0.216269	 0.000000 
Mo69	 0.383403	 0.312494	 0.500000 
Mo70	 0.466736	 0.264382	 0.500000 
S71	 0.438959	 0.312494	 1.000000 
S72	 0.438959	 0.312494	 0.000000 
S73	 0.355625	 0.360607	 1.000000 
S74	 0.355625	 0.360607	 0.000000 
Mo75	 0.300070	 0.456832	 0.500000 
Mo76	 0.383403	 0.408719	 0.500000 
S77	 0.355625	 0.456832	 1.000000 
S78	 0.355625	 0.456832	 0.000000 
S79	 0.272292	 0.504944	 1.000000 
S80	 0.272292	 0.504944	 0.000000 
Mo81	 0.216736	 0.601169	 0.500000 
Mo82	 0.300070	 0.553057	 0.500000 
S83	 0.272292	 0.601169	 1.000000 
S84	 0.272292	 0.601169	 0.000000 
S85	 0.188959	 0.649282	 1.000000 
S86	 0.188959	 0.649282	 0.000000 
Mo87	 0.133403	 0.745507	 0.500000 
Mo88	 0.216736	 0.697394	 0.500000 
S89	 0.188959	 0.745507	 1.000000 
S90	 0.188959	 0.745507	 0.000000 
S91	 0.105625	 0.793619	 1.000000 
S92	 0.105625	 0.793619	 0.000000 
Mo93	 0.550070	 0.023819	 0.500000 
Mo94	 0.133403	 0.841732	 0.500000 
S95	 0.605625	 0.023819	 1.000000 
S96	 0.605625	 0.023819	 0.000000 
S97	 0.605625	 0.120044	 1.000000 
S98	 0.605625	 0.120044	 0.000000 
Mo99	 0.550070	 0.216269	 0.500000 
Mo100	 0.633403	 0.168157	 0.500000 
S101	 0.605625	 0.216269	 1.000000 
S102	 0.605625	 0.216269	 0.000000 
S103	 0.522292	 0.264382	 1.000000 
S104	 0.522292	 0.264382	 0.000000 
Mo105	 0.466736	 0.360607	 0.500000 
Mo106	 0.550070	 0.312494	 0.500000 
S107	 0.522292	 0.360607	 1.000000 
S108	 0.522292	 0.360607	 0.000000 
S109	 0.438959	 0.408719	 1.000000 
S110	 0.438959	 0.408719	 0.000000 
Mo111	 0.383403	 0.504944	 0.500000 
Mo112	 0.466736	 0.456832	 0.500000 
S113	 0.438959	 0.504944	 1.000000 
S114	 0.438959	 0.504944	 0.000000 
S115	 0.355625	 0.553057	 1.000000 
S116	 0.355625	 0.553057	 0.000000 
Mo117	 0.300070	 0.649282	 0.500000 
Mo118	 0.383403	 0.601169	 0.500000 
S119	 0.355625	 0.649282	 1.000000 
S120	 0.355625	 0.649282	 0.000000 
S121	 0.272292	 0.697394	 1.000000 
S122	 0.272292	 0.697394	 0.000000 
Mo123	 0.216736	 0.793619	 0.500000 
Mo124	 0.300070	 0.745507	 0.500000 
S125	 0.272292	 0.793619	 1.000000 
S126	 0.272292	 0.793619	 0.000000 
S127	 0.188959	 0.841732	 1.000000 
S128	 0.188959	 0.841732	 0.000000 
Mo129	 0.633403	 0.071932	 0.500000 
Mo130	 0.216736	 0.889844	 0.500000 
S131	 0.688959	 0.071932	 1.000000 
S132	 0.688959	 0.071932	 0.000000 
S133	 0.688959	 0.168157	 1.000000 
S134	 0.688959	 0.168157	 0.000000 
Mo135	 0.633403	 0.264382	 0.500000 
Mo136	 0.716736	 0.216269	 0.500000 
S137	 0.688959	 0.264382	 1.000000 
S138	 0.688959	 0.264382	 0.000000 
S139	 0.605625	 0.312494	 1.000000 
S140	 0.605625	 0.312494	 0.000000 
Mo141	 0.550070	 0.408719	 0.500000 
Mo142	 0.633403	 0.360607	 0.500000 
S143	 0.605625	 0.408719	 1.000000 
S144	 0.605625	 0.408719	 0.000000 
S145	 0.522292	 0.456832	 1.000000 
S146	 0.522292	 0.456832	 0.000000 
Mo147	 0.466736	 0.553057	 0.500000 
Mo148	 0.550070	 0.504944	 0.500000 
S149	 0.522292	 0.553057	 1.000000 
S150	 0.522292	 0.553057	 0.000000 
S151	 0.438959	 0.601169	 1.000000 
S152	 0.438959	 0.601169	 0.000000 
Mo153	 0.383403	 0.697394	 0.500000 
Mo154	 0.466736	 0.649282	 0.500000 
S155	 0.438959	 0.697394	 1.000000 
S156	 0.438959	 0.697394	 0.000000 
S157	 0.355625	 0.745507	 1.000000 
S158	 0.355625	 0.745507	 0.000000 
Mo159	 0.300070	 0.841732	 0.500000 
Mo160	 0.383403	 0.793619	 0.500000 
S161	 0.355625	 0.841732	 1.000000 
S162	 0.355625	 0.841732	 0.000000 
S163	 0.272292	 0.889844	 1.000000 
S164	 0.272292	 0.889844	 0.000000 
Mo165	 0.716736	 0.120044	 0.500000 
Mo166	 0.300070	 0.937957	 0.500000 
S167	 0.772292	 0.120044	 1.000000 
S168	 0.772292	 0.120044	 0.000000 
S169	 0.772292	 0.216269	 1.000000 
S170	 0.772292	 0.216269	 0.000000 
Mo171	 0.716736	 0.312494	 0.500000 
Mo172	 0.800070	 0.264382	 0.500000 
S173	 0.772292	 0.312494	 1.000000 
S174	 0.772292	 0.312494	 0.000000 
S175	 0.688959	 0.360607	 1.000000 
S176	 0.688959	 0.360607	 0.000000 
Mo177	 0.633403	 0.456832	 0.500000 
Mo178	 0.716736	 0.408719	 0.500000 
S179	 0.688959	 0.456832	 1.000000 
S180	 0.688959	 0.456832	 0.000000 
S181	 0.605625	 0.504944	 1.000000 
S182	 0.605625	 0.504944	 0.000000 
Mo183	 0.550070	 0.601169	 0.500000 
Mo184	 0.633403	 0.553057	 0.500000 
S185	 0.605625	 0.601169	 1.000000 
S186	 0.605625	 0.601169	 0.000000 
S187	 0.522292	 0.649282	 1.000000 
S188	 0.522292	 0.649282	 0.000000 
Mo189	 0.466736	 0.745507	 0.500000 
Mo190	 0.550070	 0.697394	 0.500000 
S191	 0.522292	 0.745507	 1.000000 
S192	 0.522292	 0.745507	 0.000000 
S193	 0.438959	 0.793619	 1.000000 
S194	 0.438959	 0.793619	 0.000000 
Mo195	 0.383403	 0.889844	 0.500000 
Mo196	 0.466736	 0.841732	 0.500000 
S197	 0.438959	 0.889844	 1.000000 
S198	 0.438959	 0.889844	 0.000000 
S199	 0.355625	 0.937957	 1.000000 
S200	 0.355625	 0.937957	 0.000000 
Mo201	 0.800070	 0.168157	 0.500000 
Mo202	 0.383403	 0.986070	 0.500000 
S203	 0.855625	 0.168157	 1.000000 
S204	 0.855625	 0.168157	 0.000000 
S205	 0.855625	 0.264382	 1.000000 
S206	 0.855625	 0.264382	 0.000000 
Mo207	 0.800070	 0.360607	 0.500000 
Mo208	 0.883403	 0.312494	 0.500000 
S209	 0.855625	 0.360607	 1.000000 
S210	 0.855625	 0.360607	 0.000000 
S211	 0.772292	 0.408719	 1.000000 
S212	 0.772292	 0.408719	 0.000000 
Mo213	 0.716736	 0.504944	 0.500000 
Mo214	 0.800070	 0.456832	 0.500000 
S215	 0.772292	 0.504944	 1.000000 
S216	 0.772292	 0.504944	 0.000000 
S217	 0.688959	 0.553057	 1.000000 
S218	 0.688959	 0.553057	 0.000000 
Mo219	 0.633403	 0.649282	 0.500000 
Mo220	 0.716736	 0.601169	 0.500000 
S221	 0.688959	 0.649282	 1.000000 
S222	 0.688959	 0.649282	 0.000000 
S223	 0.605625	 0.697394	 1.000000 
S224	 0.605625	 0.697394	 0.000000 
Mo225	 0.550070	 0.793619	 0.500000 
Mo226	 0.633403	 0.745507	 0.500000 
S227	 0.605625	 0.793619	 1.000000 
S228	 0.605625	 0.793619	 0.000000 
S229	 0.522292	 0.841732	 1.000000 
S230	 0.522292	 0.841732	 0.000000 
Mo231	 0.466736	 0.937957	 0.500000 
Mo232	 0.550070	 0.889844	 0.500000 
S233	 0.522292	 0.937957	 1.000000 
S234	 0.522292	 0.937957	 0.000000 
S235	 0.438959	 0.986070	 1.000000 
S236	 0.438959	 0.986070	 0.000000 
Mo237	 0.883403	 0.216269	 0.500000 
S238	 0.938959	 0.216269	 1.000000 
S239	 0.938959	 0.216269	 0.000000 
S240	 0.938959	 0.312494	 1.000000 
S241	 0.938959	 0.312494	 0.000000 
Mo242	 0.883403	 0.408719	 0.500000 
Mo243	 0.966736	 0.360607	 0.500000 
S244	 0.938959	 0.408719	 1.000000 
S245	 0.938959	 0.408719	 0.000000 
S246	 0.855625	 0.456832	 1.000000 
S247	 0.855625	 0.456832	 0.000000 
Mo248	 0.800070	 0.553057	 0.500000 
Mo249	 0.883403	 0.504944	 0.500000 
S250	 0.855625	 0.553057	 1.000000 
S251	 0.855625	 0.553057	 0.000000 
S252	 0.772292	 0.601169	 1.000000 
S253	 0.772292	 0.601169	 0.000000 
Mo254	 0.716736	 0.697394	 0.500000 
Mo255	 0.800070	 0.649282	 0.500000 
S256	 0.772292	 0.697394	 1.000000 
S257	 0.772292	 0.697394	 0.000000 
S258	 0.688959	 0.745507	 1.000000 
S259	 0.688959	 0.745507	 0.000000 
Mo260	 0.633403	 0.841732	 0.500000 
Mo261	 0.716736	 0.793619	 0.500000 
S262	 0.688959	 0.841732	 1.000000 
S263	 0.688959	 0.841732	 0.000000 
S264	 0.605625	 0.889844	 1.000000 
S265	 0.605625	 0.889844	 0.000000 
Mo266	 0.550070	 0.986070	 0.500000 
Mo267	 0.633403	 0.937957	 0.500000 
S268	 0.605625	 0.986070	 1.000000 
S269	 0.605625	 0.986070	 0.000000 
Mo270	 0.966736	 0.264382	 0.500000 
Mo271	 0.966736	 0.456832	 0.500000 
S272	 0.938959	 0.504944	 1.000000 
S273	 0.938959	 0.504944	 0.000000 
Mo274	 0.883403	 0.601169	 0.500000 
Mo275	 0.966736	 0.553057	 0.500000 
S276	 0.938959	 0.601169	 1.000000 
S277	 0.938959	 0.601169	 0.000000 
S278	 0.855625	 0.649282	 1.000000 
S279	 0.855625	 0.649282	 0.000000 
Mo280	 0.800070	 0.745507	 0.500000 
Mo281	 0.883403	 0.697394	 0.500000 
S282	 0.855625	 0.745507	 1.000000 
S283	 0.855625	 0.745507	 0.000000 
S284	 0.772292	 0.793619	 1.000000 
S285	 0.772292	 0.793619	 0.000000 
Mo286	 0.716736	 0.889844	 0.500000 
Mo287	 0.800070	 0.841732	 0.500000 
S288	 0.772292	 0.889844	 1.000000 
S289	 0.772292	 0.889844	 0.000000 
S290	 0.688959	 0.937957	 1.000000 
S291	 0.688959	 0.937957	 0.000000 
Mo292	 0.716736	 0.986070	 0.500000 
S293	 0.272292	 0.023819	 1.000000 
S294	 0.272292	 0.023819	 0.000000 
Mo295	 0.966736	 0.649282	 0.500000 
Mo296	 0.216736	 0.120044	 0.500000 
S297	 0.188959	 0.168157	 1.000000 
S298	 0.188959	 0.168157	 0.000000 
S299	 0.938959	 0.697394	 1.000000 
S300	 0.938959	 0.697394	 0.000000 
Mo301	 0.883403	 0.793619	 0.500000 
Mo302	 0.133403	 0.264382	 0.500000 
S303	 0.105625	 0.312494	 1.000000 
S304	 0.105625	 0.312494	 0.000000 
S305	 0.855625	 0.841732	 1.000000 
S306	 0.855625	 0.841732	 0.000000 
Mo307	 0.800070	 0.937957	 0.500000 
Mo308	 0.050070	 0.408719	 0.500000 
S309	 0.022292	 0.456832	 1.000000 
S310	 0.022292	 0.456832	 0.000000 
S311	 0.772292	 0.986070	 1.000000 
S312	 0.772292	 0.986070	 0.000000 
#                 ---end-of-data-block---
