data_Single Layer of MoS2nx 10 ny 6 nz 1
_cell_length_a               32.423991
_cell_length_b               32.423991
_cell_length_c               3.080000
_cell_angle_alpha          90.000000
_cell_angle_beta           90.000000
_cell_angle_gamma          90.000000
_symmetry_cell_setting          Triclinic
_symmetry_space_group_name_H-M 'P 1' 
loop_
_atom_site_label
_atom_site_fract_x
_atom_site_fract_y
_atom_site_fract_z
S1	 0.410797	 0.015358	 1.000000 
S2	 0.410797	 0.015358	 0.000000 
Mo3	 0.332229	 0.093926	 0.500000 
Mo4	 0.425175	 0.069021	 0.500000 
S5	 0.385892	 0.108304	 1.000000 
S6	 0.385892	 0.108304	 0.000000 
S7	 0.292945	 0.133209	 1.000000 
S8	 0.292945	 0.133209	 0.000000 
Mo9	 0.214378	 0.211777	 0.500000 
Mo10	 0.307324	 0.186872	 0.500000 
S11	 0.268041	 0.226156	 1.000000 
S12	 0.268041	 0.226156	 0.000000 
S13	 0.175094	 0.251060	 1.000000 
S14	 0.175094	 0.251060	 0.000000 
Mo15	 0.096527	 0.329628	 0.500000 
Mo16	 0.189473	 0.304723	 0.500000 
S17	 0.150189	 0.344007	 1.000000 
S18	 0.150189	 0.344007	 0.000000 
S19	 0.057243	 0.368912	 1.000000 
S20	 0.057243	 0.368912	 0.000000 
Mo21	 0.071622	 0.422574	 0.500000 
S22	 0.032338	 0.461858	 1.000000 
S23	 0.032338	 0.461858	 0.000000 
Mo24	 0.518122	 0.044116	 0.500000 
Mo25	 0.611068	 0.019211	 0.500000 
S26	 0.571784	 0.058495	 1.000000 
S27	 0.571784	 0.058495	 0.000000 
S28	 0.478838	 0.083400	 1.000000 
S29	 0.478838	 0.083400	 0.000000 
Mo30	 0.400270	 0.161967	 0.500000 
Mo31	 0.493217	 0.137062	 0.500000 
S32	 0.453933	 0.176346	 1.000000 
S33	 0.453933	 0.176346	 0.000000 
S34	 0.360987	 0.201251	 1.000000 
S35	 0.360987	 0.201251	 0.000000 
Mo36	 0.282419	 0.279818	 0.500000 
Mo37	 0.375366	 0.254913	 0.500000 
S38	 0.336082	 0.294197	 1.000000 
S39	 0.336082	 0.294197	 0.000000 
S40	 0.243136	 0.319102	 1.000000 
S41	 0.243136	 0.319102	 0.000000 
Mo42	 0.164568	 0.397669	 0.500000 
Mo43	 0.257514	 0.372764	 0.500000 
S44	 0.218231	 0.412048	 1.000000 
S45	 0.218231	 0.412048	 0.000000 
S46	 0.125285	 0.436953	 1.000000 
S47	 0.125285	 0.436953	 0.000000 
Mo48	 0.046717	 0.515520	 0.500000 
Mo49	 0.139663	 0.490615	 0.500000 
S50	 0.100380	 0.529899	 1.000000 
S51	 0.100380	 0.529899	 0.000000 
S52	 0.007433	 0.554804	 1.000000 
S53	 0.007433	 0.554804	 0.000000 
Mo54	 0.021812	 0.608467	 0.500000 
S55	 0.664730	 0.033590	 1.000000 
S56	 0.664730	 0.033590	 0.000000 
Mo57	 0.586163	 0.112157	 0.500000 
Mo58	 0.679109	 0.087252	 0.500000 
S59	 0.639826	 0.126536	 1.000000 
S60	 0.639826	 0.126536	 0.000000 
S61	 0.546879	 0.151441	 1.000000 
S62	 0.546879	 0.151441	 0.000000 
Mo63	 0.468312	 0.230008	 0.500000 
Mo64	 0.561258	 0.205103	 0.500000 
S65	 0.521974	 0.244387	 1.000000 
S66	 0.521974	 0.244387	 0.000000 
S67	 0.429028	 0.269292	 1.000000 
S68	 0.429028	 0.269292	 0.000000 
Mo69	 0.350461	 0.347859	 0.500000 
Mo70	 0.443407	 0.322955	 0.500000 
S71	 0.404123	 0.362238	 1.000000 
S72	 0.404123	 0.362238	 0.000000 
S73	 0.311177	 0.387143	 1.000000 
S74	 0.311177	 0.387143	 0.000000 
Mo75	 0.232610	 0.465711	 0.500000 
Mo76	 0.325556	 0.440806	 0.500000 
S77	 0.286272	 0.480089	 1.000000 
S78	 0.286272	 0.480089	 0.000000 
S79	 0.193326	 0.504994	 1.000000 
S80	 0.193326	 0.504994	 0.000000 
Mo81	 0.114758	 0.583562	 0.500000 
Mo82	 0.207705	 0.558657	 0.500000 
S83	 0.168421	 0.597941	 1.000000 
S84	 0.168421	 0.597941	 0.000000 
S85	 0.075475	 0.622845	 1.000000 
S86	 0.075475	 0.622845	 0.000000 
Mo87	 0.089854	 0.676508	 0.500000 
S88	 0.050570	 0.715792	 1.000000 
S89	 0.050570	 0.715792	 0.000000 
S90	 0.732772	 0.101631	 1.000000 
S91	 0.732772	 0.101631	 0.000000 
Mo92	 0.654204	 0.180199	 0.500000 
Mo93	 0.747151	 0.155294	 0.500000 
S94	 0.707867	 0.194577	 1.000000 
S95	 0.707867	 0.194577	 0.000000 
S96	 0.614921	 0.219482	 1.000000 
S97	 0.614921	 0.219482	 0.000000 
Mo98	 0.536353	 0.298050	 0.500000 
Mo99	 0.629300	 0.273145	 0.500000 
S100	 0.590016	 0.312429	 1.000000 
S101	 0.590016	 0.312429	 0.000000 
S102	 0.497070	 0.337333	 1.000000 
S103	 0.497070	 0.337333	 0.000000 
Mo104	 0.418502	 0.415901	 0.500000 
Mo105	 0.511448	 0.390996	 0.500000 
S106	 0.472165	 0.430280	 1.000000 
S107	 0.472165	 0.430280	 0.000000 
S108	 0.379218	 0.455185	 1.000000 
S109	 0.379218	 0.455185	 0.000000 
Mo110	 0.300651	 0.533752	 0.500000 
Mo111	 0.393597	 0.508847	 0.500000 
S112	 0.354314	 0.548131	 1.000000 
S113	 0.354314	 0.548131	 0.000000 
S114	 0.261367	 0.573036	 1.000000 
S115	 0.261367	 0.573036	 0.000000 
Mo116	 0.182800	 0.651603	 0.500000 
Mo117	 0.275746	 0.626698	 0.500000 
S118	 0.236462	 0.665982	 1.000000 
S119	 0.236462	 0.665982	 0.000000 
S120	 0.143516	 0.690887	 1.000000 
S121	 0.143516	 0.690887	 0.000000 
Mo122	 0.064949	 0.769454	 0.500000 
Mo123	 0.157895	 0.744549	 0.500000 
S124	 0.118611	 0.783833	 1.000000 
S125	 0.118611	 0.783833	 0.000000 
S126	 0.800813	 0.169673	 1.000000 
S127	 0.800813	 0.169673	 0.000000 
Mo128	 0.722246	 0.248240	 0.500000 
Mo129	 0.815192	 0.223335	 0.500000 
S130	 0.775908	 0.262619	 1.000000 
S131	 0.775908	 0.262619	 0.000000 
S132	 0.682962	 0.287524	 1.000000 
S133	 0.682962	 0.287524	 0.000000 
Mo134	 0.604395	 0.366091	 0.500000 
Mo135	 0.697341	 0.341186	 0.500000 
S136	 0.658057	 0.380470	 1.000000 
S137	 0.658057	 0.380470	 0.000000 
S138	 0.565111	 0.405375	 1.000000 
S139	 0.565111	 0.405375	 0.000000 
Mo140	 0.486543	 0.483942	 0.500000 
Mo141	 0.579490	 0.459037	 0.500000 
S142	 0.540206	 0.498321	 1.000000 
S143	 0.540206	 0.498321	 0.000000 
S144	 0.447260	 0.523226	 1.000000 
S145	 0.447260	 0.523226	 0.000000 
Mo146	 0.368692	 0.601793	 0.500000 
Mo147	 0.461639	 0.576888	 0.500000 
S148	 0.422355	 0.616172	 1.000000 
S149	 0.422355	 0.616172	 0.000000 
S150	 0.329409	 0.641077	 1.000000 
S151	 0.329409	 0.641077	 0.000000 
Mo152	 0.250841	 0.719645	 0.500000 
Mo153	 0.343787	 0.694740	 0.500000 
S154	 0.304504	 0.734023	 1.000000 
S155	 0.304504	 0.734023	 0.000000 
S156	 0.211558	 0.758928	 1.000000 
S157	 0.211558	 0.758928	 0.000000 
Mo158	 0.132990	 0.837496	 0.500000 
Mo159	 0.225936	 0.812591	 0.500000 
S160	 0.186653	 0.851874	 1.000000 
S161	 0.186653	 0.851874	 0.000000 
S162	 0.868855	 0.237714	 1.000000 
S163	 0.868855	 0.237714	 0.000000 
Mo164	 0.790287	 0.316281	 0.500000 
Mo165	 0.883233	 0.291376	 0.500000 
S166	 0.843950	 0.330660	 1.000000 
S167	 0.843950	 0.330660	 0.000000 
S168	 0.751003	 0.355565	 1.000000 
S169	 0.751003	 0.355565	 0.000000 
Mo170	 0.672436	 0.434132	 0.500000 
Mo171	 0.765382	 0.409228	 0.500000 
S172	 0.726099	 0.448511	 1.000000 
S173	 0.726099	 0.448511	 0.000000 
S174	 0.633152	 0.473416	 1.000000 
S175	 0.633152	 0.473416	 0.000000 
Mo176	 0.554585	 0.551984	 0.500000 
Mo177	 0.647531	 0.527079	 0.500000 
S178	 0.608247	 0.566362	 1.000000 
S179	 0.608247	 0.566362	 0.000000 
S180	 0.515301	 0.591267	 1.000000 
S181	 0.515301	 0.591267	 0.000000 
Mo182	 0.436734	 0.669835	 0.500000 
Mo183	 0.529680	 0.644930	 0.500000 
S184	 0.490396	 0.684214	 1.000000 
S185	 0.490396	 0.684214	 0.000000 
S186	 0.397450	 0.709118	 1.000000 
S187	 0.397450	 0.709118	 0.000000 
Mo188	 0.318883	 0.787686	 0.500000 
Mo189	 0.411829	 0.762781	 0.500000 
S190	 0.372545	 0.802065	 1.000000 
S191	 0.372545	 0.802065	 0.000000 
S192	 0.279599	 0.826970	 1.000000 
S193	 0.279599	 0.826970	 0.000000 
Mo194	 0.201031	 0.905537	 0.500000 
Mo195	 0.293978	 0.880632	 0.500000 
S196	 0.254694	 0.919916	 1.000000 
S197	 0.254694	 0.919916	 0.000000 
S198	 0.936896	 0.305755	 1.000000 
S199	 0.936896	 0.305755	 0.000000 
Mo200	 0.858329	 0.384323	 0.500000 
Mo201	 0.951275	 0.359418	 0.500000 
S202	 0.911991	 0.398702	 1.000000 
S203	 0.911991	 0.398702	 0.000000 
S204	 0.819045	 0.423606	 1.000000 
S205	 0.819045	 0.423606	 0.000000 
Mo206	 0.740477	 0.502174	 0.500000 
Mo207	 0.833424	 0.477269	 0.500000 
S208	 0.794140	 0.516553	 1.000000 
S209	 0.794140	 0.516553	 0.000000 
S210	 0.701194	 0.541458	 1.000000 
S211	 0.701194	 0.541458	 0.000000 
Mo212	 0.622626	 0.620025	 0.500000 
Mo213	 0.715573	 0.595120	 0.500000 
S214	 0.676289	 0.634404	 1.000000 
S215	 0.676289	 0.634404	 0.000000 
S216	 0.583343	 0.659309	 1.000000 
S217	 0.583343	 0.659309	 0.000000 
Mo218	 0.504775	 0.737876	 0.500000 
Mo219	 0.597721	 0.712971	 0.500000 
S220	 0.558438	 0.752255	 1.000000 
S221	 0.558438	 0.752255	 0.000000 
S222	 0.465491	 0.777160	 1.000000 
S223	 0.465491	 0.777160	 0.000000 
Mo224	 0.386924	 0.855727	 0.500000 
Mo225	 0.479870	 0.830822	 0.500000 
S226	 0.440587	 0.870106	 1.000000 
S227	 0.440587	 0.870106	 0.000000 
S228	 0.347640	 0.895011	 1.000000 
S229	 0.347640	 0.895011	 0.000000 
Mo230	 0.269073	 0.973578	 0.500000 
Mo231	 0.362019	 0.948674	 0.500000 
S232	 0.322735	 0.987957	 1.000000 
S233	 0.322735	 0.987957	 0.000000 
Mo234	 0.926370	 0.452364	 0.500000 
S235	 0.980032	 0.466743	 1.000000 
S236	 0.980032	 0.466743	 0.000000 
S237	 0.887086	 0.491648	 1.000000 
S238	 0.887086	 0.491648	 0.000000 
Mo239	 0.808519	 0.570215	 0.500000 
Mo240	 0.901465	 0.545310	 0.500000 
S241	 0.862181	 0.584594	 1.000000 
S242	 0.862181	 0.584594	 0.000000 
S243	 0.769235	 0.609499	 1.000000 
S244	 0.769235	 0.609499	 0.000000 
Mo245	 0.690668	 0.688066	 0.500000 
Mo246	 0.783614	 0.663162	 0.500000 
S247	 0.744330	 0.702445	 1.000000 
S248	 0.744330	 0.702445	 0.000000 
S249	 0.651384	 0.727350	 1.000000 
S250	 0.651384	 0.727350	 0.000000 
Mo251	 0.572817	 0.805918	 0.500000 
Mo252	 0.665763	 0.781013	 0.500000 
S253	 0.626479	 0.820296	 1.000000 
S254	 0.626479	 0.820296	 0.000000 
S255	 0.533533	 0.845201	 1.000000 
S256	 0.533533	 0.845201	 0.000000 
Mo257	 0.454965	 0.923769	 0.500000 
Mo258	 0.547912	 0.898864	 0.500000 
S259	 0.508628	 0.938147	 1.000000 
S260	 0.508628	 0.938147	 0.000000 
S261	 0.415682	 0.963052	 1.000000 
S262	 0.415682	 0.963052	 0.000000 
Mo263	 0.994411	 0.520406	 0.500000 
S264	 0.955128	 0.559689	 1.000000 
S265	 0.955128	 0.559689	 0.000000 
Mo266	 0.876560	 0.638257	 0.500000 
Mo267	 0.969506	 0.613352	 0.500000 
S268	 0.930223	 0.652635	 1.000000 
S269	 0.930223	 0.652635	 0.000000 
S270	 0.837276	 0.677540	 1.000000 
S271	 0.837276	 0.677540	 0.000000 
Mo272	 0.758709	 0.756108	 0.500000 
Mo273	 0.851655	 0.731203	 0.500000 
S274	 0.812372	 0.770487	 1.000000 
S275	 0.812372	 0.770487	 0.000000 
S276	 0.719425	 0.795391	 1.000000 
S277	 0.719425	 0.795391	 0.000000 
Mo278	 0.640858	 0.873959	 0.500000 
Mo279	 0.733804	 0.849054	 0.500000 
S280	 0.694520	 0.888338	 1.000000 
S281	 0.694520	 0.888338	 0.000000 
S282	 0.601574	 0.913243	 1.000000 
S283	 0.601574	 0.913243	 0.000000 
Mo284	 0.523007	 0.991810	 0.500000 
Mo285	 0.615953	 0.966905	 0.500000 
Mo286	 0.944602	 0.706298	 0.500000 
Mo287	 0.357134	 0.000979	 0.500000 
S288	 0.317850	 0.040263	 1.000000 
S289	 0.317850	 0.040263	 0.000000 
S290	 0.905318	 0.745582	 1.000000 
S291	 0.905318	 0.745582	 0.000000 
Mo292	 0.826750	 0.824149	 0.500000 
Mo293	 0.239283	 0.118830	 0.500000 
S294	 0.199999	 0.158114	 1.000000 
S295	 0.199999	 0.158114	 0.000000 
S296	 0.787467	 0.863433	 1.000000 
S297	 0.787467	 0.863433	 0.000000 
Mo298	 0.708899	 0.942000	 0.500000 
Mo299	 0.121432	 0.236682	 0.500000 
S300	 0.082148	 0.275965	 1.000000 
S301	 0.082148	 0.275965	 0.000000 
S302	 0.669616	 0.981284	 1.000000 
S303	 0.669616	 0.981284	 0.000000 
Mo304	 0.003581	 0.354533	 0.500000 
#                 ---end-of-data-block---
