data_Single Layer of MoS2nx 10 ny 6 nz 1
_cell_length_a               32.423991
_cell_length_b               32.423991
_cell_length_c               3.080000
_cell_angle_alpha          90.000000
_cell_angle_beta           90.000000
_cell_angle_gamma          90.000000
_symmetry_cell_setting          Triclinic
_symmetry_space_group_name_H-M 'P 1' 
loop_
_atom_site_label
_atom_site_fract_x
_atom_site_fract_y
_atom_site_fract_z
Mo1	 0.421220	 0.031049	 0.500000 
Mo2	 0.514167	 0.006144	 0.500000 
S3	 0.474883	 0.045428	 1.000000 
S4	 0.474883	 0.045428	 0.000000 
S5	 0.381937	 0.070332	 1.000000 
S6	 0.381937	 0.070332	 0.000000 
Mo7	 0.303369	 0.148900	 0.500000 
Mo8	 0.396316	 0.123995	 0.500000 
S9	 0.357032	 0.163279	 1.000000 
S10	 0.357032	 0.163279	 0.000000 
S11	 0.264086	 0.188184	 1.000000 
S12	 0.264086	 0.188184	 0.000000 
Mo13	 0.185518	 0.266751	 0.500000 
Mo14	 0.278464	 0.241846	 0.500000 
S15	 0.239181	 0.281130	 1.000000 
S16	 0.239181	 0.281130	 0.000000 
S17	 0.146234	 0.306035	 1.000000 
S18	 0.146234	 0.306035	 0.000000 
Mo19	 0.067667	 0.384602	 0.500000 
Mo20	 0.160613	 0.359697	 0.500000 
S21	 0.121330	 0.398981	 1.000000 
S22	 0.121330	 0.398981	 0.000000 
S23	 0.028383	 0.423886	 1.000000 
S24	 0.028383	 0.423886	 0.000000 
Mo25	 0.042762	 0.477548	 0.500000 
S26	 0.003478	 0.516832	 1.000000 
S27	 0.003478	 0.516832	 0.000000 
S28	 0.567829	 0.020523	 1.000000 
S29	 0.567829	 0.020523	 0.000000 
Mo30	 0.489262	 0.099090	 0.500000 
Mo31	 0.582208	 0.074185	 0.500000 
S32	 0.542924	 0.113469	 1.000000 
S33	 0.542924	 0.113469	 0.000000 
S34	 0.449978	 0.138374	 1.000000 
S35	 0.449978	 0.138374	 0.000000 
Mo36	 0.371411	 0.216941	 0.500000 
Mo37	 0.464357	 0.192036	 0.500000 
S38	 0.425073	 0.231320	 1.000000 
S39	 0.425073	 0.231320	 0.000000 
S40	 0.332127	 0.256225	 1.000000 
S41	 0.332127	 0.256225	 0.000000 
Mo42	 0.253560	 0.334792	 0.500000 
Mo43	 0.346506	 0.309887	 0.500000 
S44	 0.307222	 0.349171	 1.000000 
S45	 0.307222	 0.349171	 0.000000 
S46	 0.214276	 0.374076	 1.000000 
S47	 0.214276	 0.374076	 0.000000 
Mo48	 0.135708	 0.452644	 0.500000 
Mo49	 0.228655	 0.427739	 0.500000 
S50	 0.189371	 0.467022	 1.000000 
S51	 0.189371	 0.467022	 0.000000 
S52	 0.096425	 0.491927	 1.000000 
S53	 0.096425	 0.491927	 0.000000 
Mo54	 0.017857	 0.570495	 0.500000 
Mo55	 0.110804	 0.545590	 0.500000 
S56	 0.071520	 0.584873	 1.000000 
S57	 0.071520	 0.584873	 0.000000 
S58	 0.635871	 0.088564	 1.000000 
S59	 0.635871	 0.088564	 0.000000 
Mo60	 0.557303	 0.167131	 0.500000 
Mo61	 0.650249	 0.142227	 0.500000 
S62	 0.610966	 0.181510	 1.000000 
S63	 0.610966	 0.181510	 0.000000 
S64	 0.518020	 0.206415	 1.000000 
S65	 0.518020	 0.206415	 0.000000 
Mo66	 0.439452	 0.284983	 0.500000 
Mo67	 0.532398	 0.260078	 0.500000 
S68	 0.493115	 0.299361	 1.000000 
S69	 0.493115	 0.299361	 0.000000 
S70	 0.400168	 0.324266	 1.000000 
S71	 0.400168	 0.324266	 0.000000 
Mo72	 0.321601	 0.402834	 0.500000 
Mo73	 0.414547	 0.377929	 0.500000 
S74	 0.375264	 0.417213	 1.000000 
S75	 0.375264	 0.417213	 0.000000 
S76	 0.282317	 0.442117	 1.000000 
S77	 0.282317	 0.442117	 0.000000 
Mo78	 0.203750	 0.520685	 0.500000 
Mo79	 0.296696	 0.495780	 0.500000 
S80	 0.257412	 0.535064	 1.000000 
S81	 0.257412	 0.535064	 0.000000 
S82	 0.164466	 0.559969	 1.000000 
S83	 0.164466	 0.559969	 0.000000 
Mo84	 0.085899	 0.638536	 0.500000 
Mo85	 0.178845	 0.613631	 0.500000 
S86	 0.139561	 0.652915	 1.000000 
S87	 0.139561	 0.652915	 0.000000 
S88	 0.046615	 0.677820	 1.000000 
S89	 0.046615	 0.677820	 0.000000 
Mo90	 0.675154	 0.049280	 0.500000 
Mo91	 0.060994	 0.731482	 0.500000 
S92	 0.728817	 0.063659	 1.000000 
S93	 0.728817	 0.063659	 0.000000 
S94	 0.703912	 0.156605	 1.000000 
S95	 0.703912	 0.156605	 0.000000 
Mo96	 0.625345	 0.235173	 0.500000 
Mo97	 0.718291	 0.210268	 0.500000 
S98	 0.679007	 0.249552	 1.000000 
S99	 0.679007	 0.249552	 0.000000 
S100	 0.586061	 0.274457	 1.000000 
S101	 0.586061	 0.274457	 0.000000 
Mo102	 0.507493	 0.353024	 0.500000 
Mo103	 0.600440	 0.328119	 0.500000 
S104	 0.561156	 0.367403	 1.000000 
S105	 0.561156	 0.367403	 0.000000 
S106	 0.468210	 0.392308	 1.000000 
S107	 0.468210	 0.392308	 0.000000 
Mo108	 0.389642	 0.470875	 0.500000 
Mo109	 0.482589	 0.445970	 0.500000 
S110	 0.443305	 0.485254	 1.000000 
S111	 0.443305	 0.485254	 0.000000 
S112	 0.350359	 0.510159	 1.000000 
S113	 0.350359	 0.510159	 0.000000 
Mo114	 0.271791	 0.588726	 0.500000 
Mo115	 0.364737	 0.563821	 0.500000 
S116	 0.325454	 0.603105	 1.000000 
S117	 0.325454	 0.603105	 0.000000 
S118	 0.232507	 0.628010	 1.000000 
S119	 0.232507	 0.628010	 0.000000 
Mo120	 0.153940	 0.706577	 0.500000 
Mo121	 0.246886	 0.681673	 0.500000 
S122	 0.207603	 0.720956	 1.000000 
S123	 0.207603	 0.720956	 0.000000 
S124	 0.114656	 0.745861	 1.000000 
S125	 0.114656	 0.745861	 0.000000 
Mo126	 0.743196	 0.117322	 0.500000 
Mo127	 0.129035	 0.799524	 0.500000 
S128	 0.796858	 0.131701	 1.000000 
S129	 0.796858	 0.131701	 0.000000 
S130	 0.771953	 0.224647	 1.000000 
S131	 0.771953	 0.224647	 0.000000 
Mo132	 0.693386	 0.303214	 0.500000 
Mo133	 0.786332	 0.278309	 0.500000 
S134	 0.747049	 0.317593	 1.000000 
S135	 0.747049	 0.317593	 0.000000 
S136	 0.654102	 0.342498	 1.000000 
S137	 0.654102	 0.342498	 0.000000 
Mo138	 0.575535	 0.421065	 0.500000 
Mo139	 0.668481	 0.396161	 0.500000 
S140	 0.629197	 0.435444	 1.000000 
S141	 0.629197	 0.435444	 0.000000 
S142	 0.536251	 0.460349	 1.000000 
S143	 0.536251	 0.460349	 0.000000 
Mo144	 0.457684	 0.538917	 0.500000 
Mo145	 0.550630	 0.514012	 0.500000 
S146	 0.511346	 0.553295	 1.000000 
S147	 0.511346	 0.553295	 0.000000 
S148	 0.418400	 0.578200	 1.000000 
S149	 0.418400	 0.578200	 0.000000 
Mo150	 0.339833	 0.656768	 0.500000 
Mo151	 0.432779	 0.631863	 0.500000 
S152	 0.393495	 0.671146	 1.000000 
S153	 0.393495	 0.671146	 0.000000 
S154	 0.300549	 0.696051	 1.000000 
S155	 0.300549	 0.696051	 0.000000 
Mo156	 0.221981	 0.774619	 0.500000 
Mo157	 0.314928	 0.749714	 0.500000 
S158	 0.275644	 0.788998	 1.000000 
S159	 0.275644	 0.788998	 0.000000 
S160	 0.182698	 0.813902	 1.000000 
S161	 0.182698	 0.813902	 0.000000 
Mo162	 0.811237	 0.185363	 0.500000 
Mo163	 0.197077	 0.867565	 0.500000 
S164	 0.864900	 0.199742	 1.000000 
S165	 0.864900	 0.199742	 0.000000 
S166	 0.839995	 0.292688	 1.000000 
S167	 0.839995	 0.292688	 0.000000 
Mo168	 0.761427	 0.371256	 0.500000 
Mo169	 0.854374	 0.346351	 0.500000 
S170	 0.815090	 0.385634	 1.000000 
S171	 0.815090	 0.385634	 0.000000 
S172	 0.722144	 0.410539	 1.000000 
S173	 0.722144	 0.410539	 0.000000 
Mo174	 0.643576	 0.489107	 0.500000 
Mo175	 0.736522	 0.464202	 0.500000 
S176	 0.697239	 0.503486	 1.000000 
S177	 0.697239	 0.503486	 0.000000 
S178	 0.604293	 0.528390	 1.000000 
S179	 0.604293	 0.528390	 0.000000 
Mo180	 0.525725	 0.606958	 0.500000 
Mo181	 0.618671	 0.582053	 0.500000 
S182	 0.579388	 0.621337	 1.000000 
S183	 0.579388	 0.621337	 0.000000 
S184	 0.486441	 0.646242	 1.000000 
S185	 0.486441	 0.646242	 0.000000 
Mo186	 0.407874	 0.724809	 0.500000 
Mo187	 0.500820	 0.699904	 0.500000 
S188	 0.461537	 0.739188	 1.000000 
S189	 0.461537	 0.739188	 0.000000 
S190	 0.368590	 0.764093	 1.000000 
S191	 0.368590	 0.764093	 0.000000 
Mo192	 0.290023	 0.842660	 0.500000 
Mo193	 0.382969	 0.817755	 0.500000 
S194	 0.343685	 0.857039	 1.000000 
S195	 0.343685	 0.857039	 0.000000 
S196	 0.250739	 0.881944	 1.000000 
S197	 0.250739	 0.881944	 0.000000 
Mo198	 0.879278	 0.253405	 0.500000 
Mo199	 0.265118	 0.935606	 0.500000 
S200	 0.932941	 0.267783	 1.000000 
S201	 0.932941	 0.267783	 0.000000 
S202	 0.908036	 0.360730	 1.000000 
S203	 0.908036	 0.360730	 0.000000 
Mo204	 0.829469	 0.439297	 0.500000 
Mo205	 0.922415	 0.414392	 0.500000 
S206	 0.883131	 0.453676	 1.000000 
S207	 0.883131	 0.453676	 0.000000 
S208	 0.790185	 0.478581	 1.000000 
S209	 0.790185	 0.478581	 0.000000 
Mo210	 0.711618	 0.557148	 0.500000 
Mo211	 0.804564	 0.532243	 0.500000 
S212	 0.765280	 0.571527	 1.000000 
S213	 0.765280	 0.571527	 0.000000 
S214	 0.672334	 0.596432	 1.000000 
S215	 0.672334	 0.596432	 0.000000 
Mo216	 0.593766	 0.674999	 0.500000 
Mo217	 0.686713	 0.650094	 0.500000 
S218	 0.647429	 0.689378	 1.000000 
S219	 0.647429	 0.689378	 0.000000 
S220	 0.554483	 0.714283	 1.000000 
S221	 0.554483	 0.714283	 0.000000 
Mo222	 0.475915	 0.792850	 0.500000 
Mo223	 0.568862	 0.767946	 0.500000 
S224	 0.529578	 0.807229	 1.000000 
S225	 0.529578	 0.807229	 0.000000 
S226	 0.436632	 0.832134	 1.000000 
S227	 0.436632	 0.832134	 0.000000 
Mo228	 0.358064	 0.910702	 0.500000 
Mo229	 0.451010	 0.885797	 0.500000 
S230	 0.411727	 0.925080	 1.000000 
S231	 0.411727	 0.925080	 0.000000 
S232	 0.318781	 0.949985	 1.000000 
S233	 0.318781	 0.949985	 0.000000 
Mo234	 0.947320	 0.321446	 0.500000 
S235	 0.976078	 0.428771	 1.000000 
S236	 0.976078	 0.428771	 0.000000 
Mo237	 0.897510	 0.507338	 0.500000 
Mo238	 0.990456	 0.482434	 0.500000 
S239	 0.951173	 0.521717	 1.000000 
S240	 0.951173	 0.521717	 0.000000 
S241	 0.858226	 0.546622	 1.000000 
S242	 0.858226	 0.546622	 0.000000 
Mo243	 0.779659	 0.625190	 0.500000 
Mo244	 0.872605	 0.600285	 0.500000 
S245	 0.833322	 0.639568	 1.000000 
S246	 0.833322	 0.639568	 0.000000 
S247	 0.740375	 0.664473	 1.000000 
S248	 0.740375	 0.664473	 0.000000 
Mo249	 0.661808	 0.743041	 0.500000 
Mo250	 0.754754	 0.718136	 0.500000 
S251	 0.715470	 0.757420	 1.000000 
S252	 0.715470	 0.757420	 0.000000 
S253	 0.622524	 0.782324	 1.000000 
S254	 0.622524	 0.782324	 0.000000 
Mo255	 0.543957	 0.860892	 0.500000 
Mo256	 0.636903	 0.835987	 0.500000 
S257	 0.597619	 0.875271	 1.000000 
S258	 0.597619	 0.875271	 0.000000 
S259	 0.504673	 0.900176	 1.000000 
S260	 0.504673	 0.900176	 0.000000 
Mo261	 0.426106	 0.978743	 0.500000 
Mo262	 0.519052	 0.953838	 0.500000 
S263	 0.479768	 0.993122	 1.000000 
S264	 0.479768	 0.993122	 0.000000 
Mo265	 0.965552	 0.575380	 0.500000 
S266	 0.926268	 0.614663	 1.000000 
S267	 0.926268	 0.614663	 0.000000 
Mo268	 0.847700	 0.693231	 0.500000 
Mo269	 0.940647	 0.668326	 0.500000 
S270	 0.901363	 0.707610	 1.000000 
S271	 0.901363	 0.707610	 0.000000 
S272	 0.808417	 0.732515	 1.000000 
S273	 0.808417	 0.732515	 0.000000 
Mo274	 0.729849	 0.811082	 0.500000 
Mo275	 0.822796	 0.786177	 0.500000 
S276	 0.783512	 0.825461	 1.000000 
S277	 0.783512	 0.825461	 0.000000 
S278	 0.690566	 0.850366	 1.000000 
S279	 0.690566	 0.850366	 0.000000 
Mo280	 0.611998	 0.928933	 0.500000 
Mo281	 0.704944	 0.904028	 0.500000 
S282	 0.665661	 0.943312	 1.000000 
S283	 0.665661	 0.943312	 0.000000 
S284	 0.572714	 0.968217	 1.000000 
S285	 0.572714	 0.968217	 0.000000 
S286	 0.994309	 0.682705	 1.000000 
S287	 0.994309	 0.682705	 0.000000 
Mo288	 0.915742	 0.761272	 0.500000 
Mo289	 0.328274	 0.055954	 0.500000 
S290	 0.288990	 0.095237	 1.000000 
S291	 0.288990	 0.095237	 0.000000 
S292	 0.876458	 0.800556	 1.000000 
S293	 0.876458	 0.800556	 0.000000 
Mo294	 0.797891	 0.879123	 0.500000 
Mo295	 0.210423	 0.173805	 0.500000 
S296	 0.171139	 0.213088	 1.000000 
S297	 0.171139	 0.213088	 0.000000 
S298	 0.758607	 0.918407	 1.000000 
S299	 0.758607	 0.918407	 0.000000 
Mo300	 0.680040	 0.996975	 0.500000 
Mo301	 0.092572	 0.291656	 0.500000 
S302	 0.053288	 0.330940	 1.000000 
S303	 0.053288	 0.330940	 0.000000 
#                 ---end-of-data-block---
