data_Single Layer of MoS2nx 10 ny 6 nz 1
_cell_length_a               32.423991
_cell_length_b               32.423991
_cell_length_c               3.080000
_cell_angle_alpha          90.000000
_cell_angle_beta           90.000000
_cell_angle_gamma          90.000000
_symmetry_cell_setting          Triclinic
_symmetry_space_group_name_H-M 'P 1' 
loop_
_atom_site_label
_atom_site_fract_x
_atom_site_fract_y
_atom_site_fract_z
Mo1	 0.283568	 0.065561	 0.500000 
Mo2	 0.376515	 0.040656	 0.500000 
S3	 0.337231	 0.079940	 1.000000 
S4	 0.337231	 0.079940	 0.000000 
S5	 0.244285	 0.104845	 1.000000 
S6	 0.244285	 0.104845	 0.000000 
Mo7	 0.165717	 0.183412	 0.500000 
Mo8	 0.258663	 0.158507	 0.500000 
S9	 0.219380	 0.197791	 1.000000 
S10	 0.219380	 0.197791	 0.000000 
S11	 0.126433	 0.222696	 1.000000 
S12	 0.126433	 0.222696	 0.000000 
Mo13	 0.047866	 0.301263	 0.500000 
Mo14	 0.140812	 0.276358	 0.500000 
S15	 0.101529	 0.315642	 1.000000 
S16	 0.101529	 0.315642	 0.000000 
S17	 0.008582	 0.340547	 1.000000 
S18	 0.008582	 0.340547	 0.000000 
Mo19	 0.022961	 0.394209	 0.500000 
Mo20	 0.469461	 0.015751	 0.500000 
S21	 0.523123	 0.030130	 1.000000 
S22	 0.523123	 0.030130	 0.000000 
S23	 0.430177	 0.055035	 1.000000 
S24	 0.430177	 0.055035	 0.000000 
Mo25	 0.351610	 0.133602	 0.500000 
Mo26	 0.444556	 0.108697	 0.500000 
S27	 0.405272	 0.147981	 1.000000 
S28	 0.405272	 0.147981	 0.000000 
S29	 0.312326	 0.172886	 1.000000 
S30	 0.312326	 0.172886	 0.000000 
Mo31	 0.233759	 0.251453	 0.500000 
Mo32	 0.326705	 0.226549	 0.500000 
S33	 0.287421	 0.265832	 1.000000 
S34	 0.287421	 0.265832	 0.000000 
S35	 0.194475	 0.290737	 1.000000 
S36	 0.194475	 0.290737	 0.000000 
Mo37	 0.115907	 0.369305	 0.500000 
Mo38	 0.208854	 0.344400	 0.500000 
S39	 0.169570	 0.383683	 1.000000 
S40	 0.169570	 0.383683	 0.000000 
S41	 0.076624	 0.408588	 1.000000 
S42	 0.076624	 0.408588	 0.000000 
Mo43	 0.091003	 0.462251	 0.500000 
S44	 0.051719	 0.501535	 1.000000 
S45	 0.051719	 0.501535	 0.000000 
S46	 0.616070	 0.005225	 1.000000 
S47	 0.616070	 0.005225	 0.000000 
Mo48	 0.537502	 0.083793	 0.500000 
Mo49	 0.630448	 0.058888	 0.500000 
S50	 0.591165	 0.098171	 1.000000 
S51	 0.591165	 0.098171	 0.000000 
S52	 0.498218	 0.123076	 1.000000 
S53	 0.498218	 0.123076	 0.000000 
Mo54	 0.419651	 0.201644	 0.500000 
Mo55	 0.512597	 0.176739	 0.500000 
S56	 0.473314	 0.216023	 1.000000 
S57	 0.473314	 0.216023	 0.000000 
S58	 0.380367	 0.240927	 1.000000 
S59	 0.380367	 0.240927	 0.000000 
Mo60	 0.301800	 0.319495	 0.500000 
Mo61	 0.394746	 0.294590	 0.500000 
S62	 0.355462	 0.333874	 1.000000 
S63	 0.355462	 0.333874	 0.000000 
S64	 0.262516	 0.358779	 1.000000 
S65	 0.262516	 0.358779	 0.000000 
Mo66	 0.183949	 0.437346	 0.500000 
Mo67	 0.276895	 0.412441	 0.500000 
S68	 0.237611	 0.451725	 1.000000 
S69	 0.237611	 0.451725	 0.000000 
S70	 0.144665	 0.476630	 1.000000 
S71	 0.144665	 0.476630	 0.000000 
Mo72	 0.066098	 0.555197	 0.500000 
Mo73	 0.159044	 0.530292	 0.500000 
S74	 0.119760	 0.569576	 1.000000 
S75	 0.119760	 0.569576	 0.000000 
S76	 0.026814	 0.594481	 1.000000 
S77	 0.026814	 0.594481	 0.000000 
Mo78	 0.041193	 0.648143	 0.500000 
S79	 0.001909	 0.687427	 1.000000 
S80	 0.001909	 0.687427	 0.000000 
S81	 0.684111	 0.073267	 1.000000 
S82	 0.684111	 0.073267	 0.000000 
Mo83	 0.605544	 0.151834	 0.500000 
Mo84	 0.698490	 0.126929	 0.500000 
S85	 0.659206	 0.166213	 1.000000 
S86	 0.659206	 0.166213	 0.000000 
S87	 0.566260	 0.191118	 1.000000 
S88	 0.566260	 0.191118	 0.000000 
Mo89	 0.487692	 0.269685	 0.500000 
Mo90	 0.580639	 0.244780	 0.500000 
S91	 0.541355	 0.284064	 1.000000 
S92	 0.541355	 0.284064	 0.000000 
S93	 0.448409	 0.308969	 1.000000 
S94	 0.448409	 0.308969	 0.000000 
Mo95	 0.369841	 0.387536	 0.500000 
Mo96	 0.462788	 0.362631	 0.500000 
S97	 0.423504	 0.401915	 1.000000 
S98	 0.423504	 0.401915	 0.000000 
S99	 0.330558	 0.426820	 1.000000 
S100	 0.330558	 0.426820	 0.000000 
Mo101	 0.251990	 0.505387	 0.500000 
Mo102	 0.344936	 0.480482	 0.500000 
S103	 0.305653	 0.519766	 1.000000 
S104	 0.305653	 0.519766	 0.000000 
S105	 0.212706	 0.544671	 1.000000 
S106	 0.212706	 0.544671	 0.000000 
Mo107	 0.134139	 0.623238	 0.500000 
Mo108	 0.227085	 0.598334	 0.500000 
S109	 0.187802	 0.637617	 1.000000 
S110	 0.187802	 0.637617	 0.000000 
S111	 0.094855	 0.662522	 1.000000 
S112	 0.094855	 0.662522	 0.000000 
Mo113	 0.723395	 0.033983	 0.500000 
Mo114	 0.109234	 0.716185	 0.500000 
S115	 0.069950	 0.755468	 1.000000 
S116	 0.069950	 0.755468	 0.000000 
S117	 0.752152	 0.141308	 1.000000 
S118	 0.752152	 0.141308	 0.000000 
Mo119	 0.673585	 0.219875	 0.500000 
Mo120	 0.766531	 0.194970	 0.500000 
S121	 0.727247	 0.234254	 1.000000 
S122	 0.727247	 0.234254	 0.000000 
S123	 0.634301	 0.259159	 1.000000 
S124	 0.634301	 0.259159	 0.000000 
Mo125	 0.555734	 0.337726	 0.500000 
Mo126	 0.648680	 0.312822	 0.500000 
S127	 0.609396	 0.352105	 1.000000 
S128	 0.609396	 0.352105	 0.000000 
S129	 0.516450	 0.377010	 1.000000 
S130	 0.516450	 0.377010	 0.000000 
Mo131	 0.437883	 0.455578	 0.500000 
Mo132	 0.530829	 0.430673	 0.500000 
S133	 0.491545	 0.469956	 1.000000 
S134	 0.491545	 0.469956	 0.000000 
S135	 0.398599	 0.494861	 1.000000 
S136	 0.398599	 0.494861	 0.000000 
Mo137	 0.320032	 0.573429	 0.500000 
Mo138	 0.412978	 0.548524	 0.500000 
S139	 0.373694	 0.587808	 1.000000 
S140	 0.373694	 0.587808	 0.000000 
S141	 0.280748	 0.612712	 1.000000 
S142	 0.280748	 0.612712	 0.000000 
Mo143	 0.202180	 0.691280	 0.500000 
Mo144	 0.295127	 0.666375	 0.500000 
S145	 0.255843	 0.705659	 1.000000 
S146	 0.255843	 0.705659	 0.000000 
S147	 0.162897	 0.730564	 1.000000 
S148	 0.162897	 0.730564	 0.000000 
Mo149	 0.791436	 0.102024	 0.500000 
Mo150	 0.177276	 0.784226	 0.500000 
S151	 0.137992	 0.823510	 1.000000 
S152	 0.137992	 0.823510	 0.000000 
S153	 0.820194	 0.209349	 1.000000 
S154	 0.820194	 0.209349	 0.000000 
Mo155	 0.741626	 0.287917	 0.500000 
Mo156	 0.834573	 0.263012	 0.500000 
S157	 0.795289	 0.302296	 1.000000 
S158	 0.795289	 0.302296	 0.000000 
S159	 0.702343	 0.327200	 1.000000 
S160	 0.702343	 0.327200	 0.000000 
Mo161	 0.623775	 0.405768	 0.500000 
Mo162	 0.716721	 0.380863	 0.500000 
S163	 0.677438	 0.420147	 1.000000 
S164	 0.677438	 0.420147	 0.000000 
S165	 0.584491	 0.445052	 1.000000 
S166	 0.584491	 0.445052	 0.000000 
Mo167	 0.505924	 0.523619	 0.500000 
Mo168	 0.598870	 0.498714	 0.500000 
S169	 0.559587	 0.537998	 1.000000 
S170	 0.559587	 0.537998	 0.000000 
S171	 0.466640	 0.562903	 1.000000 
S172	 0.466640	 0.562903	 0.000000 
Mo173	 0.388073	 0.641470	 0.500000 
Mo174	 0.481019	 0.616565	 0.500000 
S175	 0.441735	 0.655849	 1.000000 
S176	 0.441735	 0.655849	 0.000000 
S177	 0.348789	 0.680754	 1.000000 
S178	 0.348789	 0.680754	 0.000000 
Mo179	 0.270222	 0.759321	 0.500000 
Mo180	 0.363168	 0.734416	 0.500000 
S181	 0.323884	 0.773700	 1.000000 
S182	 0.323884	 0.773700	 0.000000 
S183	 0.230938	 0.798605	 1.000000 
S184	 0.230938	 0.798605	 0.000000 
Mo185	 0.859477	 0.170066	 0.500000 
Mo186	 0.245317	 0.852268	 0.500000 
S187	 0.206033	 0.891551	 1.000000 
S188	 0.206033	 0.891551	 0.000000 
S189	 0.888235	 0.277391	 1.000000 
S190	 0.888235	 0.277391	 0.000000 
Mo191	 0.809668	 0.355958	 0.500000 
Mo192	 0.902614	 0.331053	 0.500000 
S193	 0.863330	 0.370337	 1.000000 
S194	 0.863330	 0.370337	 0.000000 
S195	 0.770384	 0.395242	 1.000000 
S196	 0.770384	 0.395242	 0.000000 
Mo197	 0.691817	 0.473809	 0.500000 
Mo198	 0.784763	 0.448904	 0.500000 
S199	 0.745479	 0.488188	 1.000000 
S200	 0.745479	 0.488188	 0.000000 
S201	 0.652533	 0.513093	 1.000000 
S202	 0.652533	 0.513093	 0.000000 
Mo203	 0.573965	 0.591660	 0.500000 
Mo204	 0.666912	 0.566756	 0.500000 
S205	 0.627628	 0.606039	 1.000000 
S206	 0.627628	 0.606039	 0.000000 
S207	 0.534682	 0.630944	 1.000000 
S208	 0.534682	 0.630944	 0.000000 
Mo209	 0.456114	 0.709512	 0.500000 
Mo210	 0.549061	 0.684607	 0.500000 
S211	 0.509777	 0.723890	 1.000000 
S212	 0.509777	 0.723890	 0.000000 
S213	 0.416831	 0.748795	 1.000000 
S214	 0.416831	 0.748795	 0.000000 
Mo215	 0.338263	 0.827363	 0.500000 
Mo216	 0.431209	 0.802458	 0.500000 
S217	 0.391926	 0.841741	 1.000000 
S218	 0.391926	 0.841741	 0.000000 
S219	 0.298979	 0.866646	 1.000000 
S220	 0.298979	 0.866646	 0.000000 
Mo221	 0.927519	 0.238107	 0.500000 
Mo222	 0.313358	 0.920309	 0.500000 
S223	 0.274075	 0.959593	 1.000000 
S224	 0.274075	 0.959593	 0.000000 
S225	 0.956276	 0.345432	 1.000000 
S226	 0.956276	 0.345432	 0.000000 
Mo227	 0.877709	 0.424000	 0.500000 
Mo228	 0.970655	 0.399095	 0.500000 
S229	 0.931372	 0.438378	 1.000000 
S230	 0.931372	 0.438378	 0.000000 
S231	 0.838425	 0.463283	 1.000000 
S232	 0.838425	 0.463283	 0.000000 
Mo233	 0.759858	 0.541851	 0.500000 
Mo234	 0.852804	 0.516946	 0.500000 
S235	 0.813520	 0.556229	 1.000000 
S236	 0.813520	 0.556229	 0.000000 
S237	 0.720574	 0.581134	 1.000000 
S238	 0.720574	 0.581134	 0.000000 
Mo239	 0.642007	 0.659702	 0.500000 
Mo240	 0.734953	 0.634797	 0.500000 
S241	 0.695669	 0.674081	 1.000000 
S242	 0.695669	 0.674081	 0.000000 
S243	 0.602723	 0.698985	 1.000000 
S244	 0.602723	 0.698985	 0.000000 
Mo245	 0.524156	 0.777553	 0.500000 
Mo246	 0.617102	 0.752648	 0.500000 
S247	 0.577818	 0.791932	 1.000000 
S248	 0.577818	 0.791932	 0.000000 
S249	 0.484872	 0.816837	 1.000000 
S250	 0.484872	 0.816837	 0.000000 
Mo251	 0.406305	 0.895404	 0.500000 
Mo252	 0.499251	 0.870499	 0.500000 
S253	 0.459967	 0.909783	 1.000000 
S254	 0.459967	 0.909783	 0.000000 
S255	 0.367021	 0.934688	 1.000000 
S256	 0.367021	 0.934688	 0.000000 
Mo257	 0.995560	 0.306148	 0.500000 
Mo258	 0.381400	 0.988350	 0.500000 
Mo259	 0.945750	 0.492041	 0.500000 
S260	 0.999413	 0.506420	 1.000000 
S261	 0.999413	 0.506420	 0.000000 
S262	 0.906467	 0.531325	 1.000000 
S263	 0.906467	 0.531325	 0.000000 
Mo264	 0.827899	 0.609892	 0.500000 
Mo265	 0.920846	 0.584987	 0.500000 
S266	 0.881562	 0.624271	 1.000000 
S267	 0.881562	 0.624271	 0.000000 
S268	 0.788616	 0.649176	 1.000000 
S269	 0.788616	 0.649176	 0.000000 
Mo270	 0.710048	 0.727743	 0.500000 
Mo271	 0.802994	 0.702838	 0.500000 
S272	 0.763711	 0.742122	 1.000000 
S273	 0.763711	 0.742122	 0.000000 
S274	 0.670764	 0.767027	 1.000000 
S275	 0.670764	 0.767027	 0.000000 
Mo276	 0.592197	 0.845594	 0.500000 
Mo277	 0.685143	 0.820689	 0.500000 
S278	 0.645860	 0.859973	 1.000000 
S279	 0.645860	 0.859973	 0.000000 
S280	 0.552913	 0.884878	 1.000000 
S281	 0.552913	 0.884878	 0.000000 
Mo282	 0.474346	 0.963445	 0.500000 
Mo283	 0.567292	 0.938541	 0.500000 
S284	 0.528008	 0.977824	 1.000000 
S285	 0.528008	 0.977824	 0.000000 
S286	 0.974508	 0.599366	 1.000000 
S287	 0.974508	 0.599366	 0.000000 
Mo288	 0.895941	 0.677933	 0.500000 
Mo289	 0.988887	 0.653029	 0.500000 
S290	 0.949603	 0.692312	 1.000000 
S291	 0.949603	 0.692312	 0.000000 
S292	 0.856657	 0.717217	 1.000000 
S293	 0.856657	 0.717217	 0.000000 
Mo294	 0.778090	 0.795785	 0.500000 
Mo295	 0.871036	 0.770880	 0.500000 
S296	 0.831752	 0.810163	 1.000000 
S297	 0.831752	 0.810163	 0.000000 
S298	 0.738806	 0.835068	 1.000000 
S299	 0.738806	 0.835068	 0.000000 
Mo300	 0.660238	 0.913636	 0.500000 
Mo301	 0.753185	 0.888731	 0.500000 
S302	 0.713901	 0.928014	 1.000000 
S303	 0.713901	 0.928014	 0.000000 
S304	 0.620955	 0.952919	 1.000000 
S305	 0.620955	 0.952919	 0.000000 
#                 ---end-of-data-block---
