data_Single Layer of MoS2nx 10 ny 6 nz 1
_cell_length_a               32.423991
_cell_length_b               32.423991
_cell_length_c               3.080000
_cell_angle_alpha          90.000000
_cell_angle_beta           90.000000
_cell_angle_gamma          90.000000
_symmetry_cell_setting          Triclinic
_symmetry_space_group_name_H-M 'P 1' 
loop_
_atom_site_label
_atom_site_fract_x
_atom_site_fract_y
_atom_site_fract_z
S1	 0.747362	 0.000809	 1.000000 
S2	 0.747362	 0.000809	 0.000000 
Mo3	 0.640037	 0.029567	 0.500000 
Mo4	 0.732984	 0.054472	 0.500000 
S5	 0.679321	 0.068851	 1.000000 
S6	 0.679321	 0.068851	 0.000000 
S7	 0.586375	 0.043946	 1.000000 
S8	 0.586375	 0.043946	 0.000000 
Mo9	 0.479050	 0.072704	 0.500000 
Mo10	 0.571996	 0.097609	 0.500000 
S11	 0.518333	 0.111987	 1.000000 
S12	 0.518333	 0.111987	 0.000000 
S13	 0.425387	 0.087082	 1.000000 
S14	 0.425387	 0.087082	 0.000000 
Mo15	 0.318062	 0.115840	 0.500000 
Mo16	 0.411008	 0.140745	 0.500000 
S17	 0.357346	 0.155124	 1.000000 
S18	 0.357346	 0.155124	 0.000000 
S19	 0.264399	 0.130219	 1.000000 
S20	 0.264399	 0.130219	 0.000000 
Mo21	 0.157074	 0.158977	 0.500000 
Mo22	 0.250021	 0.183882	 0.500000 
S23	 0.196358	 0.198260	 1.000000 
S24	 0.196358	 0.198260	 0.000000 
S25	 0.103412	 0.173355	 1.000000 
S26	 0.103412	 0.173355	 0.000000 
Mo27	 0.089033	 0.227018	 0.500000 
S28	 0.035370	 0.241397	 1.000000 
S29	 0.035370	 0.241397	 0.000000 
S30	 0.840309	 0.025714	 1.000000 
S31	 0.840309	 0.025714	 0.000000 
S32	 0.772267	 0.093756	 1.000000 
S33	 0.772267	 0.093756	 0.000000 
Mo34	 0.664942	 0.122513	 0.500000 
Mo35	 0.757888	 0.147418	 0.500000 
S36	 0.704226	 0.161797	 1.000000 
S37	 0.704226	 0.161797	 0.000000 
S38	 0.611280	 0.136892	 1.000000 
S39	 0.611280	 0.136892	 0.000000 
Mo40	 0.503955	 0.165650	 0.500000 
Mo41	 0.596901	 0.190555	 0.500000 
S42	 0.543238	 0.204934	 1.000000 
S43	 0.543238	 0.204934	 0.000000 
S44	 0.450292	 0.180029	 1.000000 
S45	 0.450292	 0.180029	 0.000000 
Mo46	 0.342967	 0.208786	 0.500000 
Mo47	 0.435913	 0.233691	 0.500000 
S48	 0.382251	 0.248070	 1.000000 
S49	 0.382251	 0.248070	 0.000000 
S50	 0.289304	 0.223165	 1.000000 
S51	 0.289304	 0.223165	 0.000000 
Mo52	 0.181979	 0.251923	 0.500000 
Mo53	 0.274926	 0.276828	 0.500000 
S54	 0.221263	 0.291207	 1.000000 
S55	 0.221263	 0.291207	 0.000000 
S56	 0.128317	 0.266302	 1.000000 
S57	 0.128317	 0.266302	 0.000000 
Mo58	 0.020992	 0.295059	 0.500000 
Mo59	 0.113938	 0.319964	 0.500000 
S60	 0.060275	 0.334343	 1.000000 
S61	 0.060275	 0.334343	 0.000000 
Mo62	 0.825930	 0.079377	 0.500000 
S63	 0.865214	 0.118661	 1.000000 
S64	 0.865214	 0.118661	 0.000000 
S65	 0.797172	 0.186702	 1.000000 
S66	 0.797172	 0.186702	 0.000000 
Mo67	 0.689847	 0.215460	 0.500000 
Mo68	 0.782793	 0.240365	 0.500000 
S69	 0.729131	 0.254743	 1.000000 
S70	 0.729131	 0.254743	 0.000000 
S71	 0.636185	 0.229838	 1.000000 
S72	 0.636185	 0.229838	 0.000000 
Mo73	 0.528859	 0.258596	 0.500000 
Mo74	 0.621806	 0.283501	 0.500000 
S75	 0.568143	 0.297880	 1.000000 
S76	 0.568143	 0.297880	 0.000000 
S77	 0.475197	 0.272975	 1.000000 
S78	 0.475197	 0.272975	 0.000000 
Mo79	 0.367872	 0.301733	 0.500000 
Mo80	 0.460818	 0.326638	 0.500000 
S81	 0.407155	 0.341016	 1.000000 
S82	 0.407155	 0.341016	 0.000000 
S83	 0.314209	 0.316111	 1.000000 
S84	 0.314209	 0.316111	 0.000000 
Mo85	 0.206884	 0.344869	 0.500000 
Mo86	 0.299830	 0.369774	 0.500000 
S87	 0.246168	 0.384153	 1.000000 
S88	 0.246168	 0.384153	 0.000000 
S89	 0.153222	 0.359248	 1.000000 
S90	 0.153222	 0.359248	 0.000000 
Mo91	 0.045897	 0.388006	 0.500000 
Mo92	 0.138843	 0.412911	 0.500000 
S93	 0.085180	 0.427289	 1.000000 
S94	 0.085180	 0.427289	 0.000000 
Mo95	 0.850835	 0.172323	 0.500000 
S96	 0.890118	 0.211607	 1.000000 
S97	 0.890118	 0.211607	 0.000000 
S98	 0.822077	 0.279648	 1.000000 
S99	 0.822077	 0.279648	 0.000000 
Mo100	 0.714752	 0.308406	 0.500000 
Mo101	 0.807698	 0.333311	 0.500000 
S102	 0.754036	 0.347690	 1.000000 
S103	 0.754036	 0.347690	 0.000000 
S104	 0.661089	 0.322785	 1.000000 
S105	 0.661089	 0.322785	 0.000000 
Mo106	 0.553764	 0.351542	 0.500000 
Mo107	 0.646711	 0.376447	 0.500000 
S108	 0.593048	 0.390826	 1.000000 
S109	 0.593048	 0.390826	 0.000000 
S110	 0.500102	 0.365921	 1.000000 
S111	 0.500102	 0.365921	 0.000000 
Mo112	 0.392777	 0.394679	 0.500000 
Mo113	 0.485723	 0.419584	 0.500000 
S114	 0.432060	 0.433963	 1.000000 
S115	 0.432060	 0.433963	 0.000000 
S116	 0.339114	 0.409058	 1.000000 
S117	 0.339114	 0.409058	 0.000000 
Mo118	 0.231789	 0.437815	 0.500000 
Mo119	 0.324735	 0.462720	 0.500000 
S120	 0.271073	 0.477099	 1.000000 
S121	 0.271073	 0.477099	 0.000000 
S122	 0.178126	 0.452194	 1.000000 
S123	 0.178126	 0.452194	 0.000000 
Mo124	 0.070801	 0.480952	 0.500000 
Mo125	 0.163748	 0.505857	 0.500000 
S126	 0.110085	 0.520236	 1.000000 
S127	 0.110085	 0.520236	 0.000000 
S128	 0.017139	 0.495331	 1.000000 
S129	 0.017139	 0.495331	 0.000000 
Mo130	 0.875740	 0.265269	 0.500000 
Mo131	 0.002760	 0.548993	 0.500000 
S132	 0.915023	 0.304553	 1.000000 
S133	 0.915023	 0.304553	 0.000000 
S134	 0.846982	 0.372594	 1.000000 
S135	 0.846982	 0.372594	 0.000000 
Mo136	 0.739657	 0.401352	 0.500000 
Mo137	 0.832603	 0.426257	 0.500000 
S138	 0.778941	 0.440636	 1.000000 
S139	 0.778941	 0.440636	 0.000000 
S140	 0.685994	 0.415731	 1.000000 
S141	 0.685994	 0.415731	 0.000000 
Mo142	 0.578669	 0.444489	 0.500000 
Mo143	 0.671615	 0.469394	 0.500000 
S144	 0.617953	 0.483772	 1.000000 
S145	 0.617953	 0.483772	 0.000000 
S146	 0.525007	 0.458867	 1.000000 
S147	 0.525007	 0.458867	 0.000000 
Mo148	 0.417682	 0.487625	 0.500000 
Mo149	 0.510628	 0.512530	 0.500000 
S150	 0.456965	 0.526909	 1.000000 
S151	 0.456965	 0.526909	 0.000000 
S152	 0.364019	 0.502004	 1.000000 
S153	 0.364019	 0.502004	 0.000000 
Mo154	 0.256694	 0.530762	 0.500000 
Mo155	 0.349640	 0.555667	 0.500000 
S156	 0.295978	 0.570045	 1.000000 
S157	 0.295978	 0.570045	 0.000000 
S158	 0.203031	 0.545141	 1.000000 
S159	 0.203031	 0.545141	 0.000000 
Mo160	 0.095706	 0.573898	 0.500000 
Mo161	 0.188653	 0.598803	 0.500000 
S162	 0.134990	 0.613182	 1.000000 
S163	 0.134990	 0.613182	 0.000000 
S164	 0.042044	 0.588277	 1.000000 
S165	 0.042044	 0.588277	 0.000000 
Mo166	 0.900644	 0.358216	 0.500000 
Mo167	 0.027665	 0.641940	 0.500000 
S168	 0.939928	 0.397499	 1.000000 
S169	 0.939928	 0.397499	 0.000000 
S170	 0.871887	 0.465541	 1.000000 
S171	 0.871887	 0.465541	 0.000000 
Mo172	 0.764562	 0.494298	 0.500000 
Mo173	 0.857508	 0.519203	 0.500000 
S174	 0.803845	 0.533582	 1.000000 
S175	 0.803845	 0.533582	 0.000000 
S176	 0.710899	 0.508677	 1.000000 
S177	 0.710899	 0.508677	 0.000000 
Mo178	 0.603574	 0.537435	 0.500000 
Mo179	 0.696520	 0.562340	 0.500000 
S180	 0.642858	 0.576719	 1.000000 
S181	 0.642858	 0.576719	 0.000000 
S182	 0.549911	 0.551814	 1.000000 
S183	 0.549911	 0.551814	 0.000000 
Mo184	 0.442586	 0.580571	 0.500000 
Mo185	 0.535533	 0.605476	 0.500000 
S186	 0.481870	 0.619855	 1.000000 
S187	 0.481870	 0.619855	 0.000000 
S188	 0.388924	 0.594950	 1.000000 
S189	 0.388924	 0.594950	 0.000000 
Mo190	 0.281599	 0.623708	 0.500000 
Mo191	 0.374545	 0.648613	 0.500000 
S192	 0.320882	 0.662992	 1.000000 
S193	 0.320882	 0.662992	 0.000000 
S194	 0.227936	 0.638087	 1.000000 
S195	 0.227936	 0.638087	 0.000000 
Mo196	 0.120611	 0.666844	 0.500000 
Mo197	 0.213557	 0.691749	 0.500000 
S198	 0.159895	 0.706128	 1.000000 
S199	 0.159895	 0.706128	 0.000000 
S200	 0.066949	 0.681223	 1.000000 
S201	 0.066949	 0.681223	 0.000000 
Mo202	 0.925549	 0.451162	 0.500000 
Mo203	 0.052570	 0.734886	 0.500000 
S204	 0.964833	 0.490446	 1.000000 
S205	 0.964833	 0.490446	 0.000000 
S206	 0.896792	 0.558487	 1.000000 
S207	 0.896792	 0.558487	 0.000000 
Mo208	 0.789467	 0.587245	 0.500000 
Mo209	 0.882413	 0.612150	 0.500000 
S210	 0.828750	 0.626528	 1.000000 
S211	 0.828750	 0.626528	 0.000000 
S212	 0.735804	 0.601623	 1.000000 
S213	 0.735804	 0.601623	 0.000000 
Mo214	 0.628479	 0.630381	 0.500000 
Mo215	 0.721425	 0.655286	 0.500000 
S216	 0.667763	 0.669665	 1.000000 
S217	 0.667763	 0.669665	 0.000000 
S218	 0.574816	 0.644760	 1.000000 
S219	 0.574816	 0.644760	 0.000000 
Mo220	 0.467491	 0.673518	 0.500000 
Mo221	 0.560438	 0.698423	 0.500000 
S222	 0.506775	 0.712801	 1.000000 
S223	 0.506775	 0.712801	 0.000000 
S224	 0.413829	 0.687897	 1.000000 
S225	 0.413829	 0.687897	 0.000000 
Mo226	 0.306504	 0.716654	 0.500000 
Mo227	 0.399450	 0.741559	 0.500000 
S228	 0.345787	 0.755938	 1.000000 
S229	 0.345787	 0.755938	 0.000000 
S230	 0.252841	 0.731033	 1.000000 
S231	 0.252841	 0.731033	 0.000000 
Mo232	 0.145516	 0.759791	 0.500000 
Mo233	 0.238462	 0.784696	 0.500000 
S234	 0.184800	 0.799074	 1.000000 
S235	 0.184800	 0.799074	 0.000000 
S236	 0.091853	 0.774170	 1.000000 
S237	 0.091853	 0.774170	 0.000000 
Mo238	 0.950454	 0.544108	 0.500000 
Mo239	 0.077475	 0.827832	 0.500000 
S240	 0.989738	 0.583392	 1.000000 
S241	 0.989738	 0.583392	 0.000000 
S242	 0.921697	 0.651433	 1.000000 
S243	 0.921697	 0.651433	 0.000000 
Mo244	 0.814371	 0.680191	 0.500000 
Mo245	 0.907318	 0.705096	 0.500000 
S246	 0.853655	 0.719475	 1.000000 
S247	 0.853655	 0.719475	 0.000000 
S248	 0.760709	 0.694570	 1.000000 
S249	 0.760709	 0.694570	 0.000000 
Mo250	 0.653384	 0.723327	 0.500000 
Mo251	 0.746330	 0.748232	 0.500000 
S252	 0.692667	 0.762611	 1.000000 
S253	 0.692667	 0.762611	 0.000000 
S254	 0.599721	 0.737706	 1.000000 
S255	 0.599721	 0.737706	 0.000000 
Mo256	 0.492396	 0.766464	 0.500000 
Mo257	 0.585342	 0.791369	 0.500000 
S258	 0.531680	 0.805748	 1.000000 
S259	 0.531680	 0.805748	 0.000000 
S260	 0.438734	 0.780843	 1.000000 
S261	 0.438734	 0.780843	 0.000000 
Mo262	 0.331409	 0.809600	 0.500000 
Mo263	 0.424355	 0.834505	 0.500000 
S264	 0.370692	 0.848884	 1.000000 
S265	 0.370692	 0.848884	 0.000000 
S266	 0.277746	 0.823979	 1.000000 
S267	 0.277746	 0.823979	 0.000000 
Mo268	 0.170421	 0.852737	 0.500000 
Mo269	 0.263367	 0.877642	 0.500000 
S270	 0.209705	 0.892021	 1.000000 
S271	 0.209705	 0.892021	 0.000000 
S272	 0.116758	 0.867116	 1.000000 
S273	 0.116758	 0.867116	 0.000000 
Mo274	 0.975359	 0.637054	 0.500000 
Mo275	 0.102379	 0.920778	 0.500000 
S276	 0.946601	 0.744379	 1.000000 
S277	 0.946601	 0.744379	 0.000000 
Mo278	 0.839276	 0.773137	 0.500000 
Mo279	 0.932223	 0.798042	 0.500000 
S280	 0.878560	 0.812421	 1.000000 
S281	 0.878560	 0.812421	 0.000000 
S282	 0.785614	 0.787516	 1.000000 
S283	 0.785614	 0.787516	 0.000000 
Mo284	 0.678289	 0.816274	 0.500000 
Mo285	 0.771235	 0.841179	 0.500000 
S286	 0.717572	 0.855557	 1.000000 
S287	 0.717572	 0.855557	 0.000000 
S288	 0.624626	 0.830653	 1.000000 
S289	 0.624626	 0.830653	 0.000000 
Mo290	 0.517301	 0.859410	 0.500000 
Mo291	 0.610247	 0.884315	 0.500000 
S292	 0.556585	 0.898694	 1.000000 
S293	 0.556585	 0.898694	 0.000000 
S294	 0.463638	 0.873789	 1.000000 
S295	 0.463638	 0.873789	 0.000000 
Mo296	 0.356313	 0.902547	 0.500000 
Mo297	 0.449260	 0.927452	 0.500000 
S298	 0.395597	 0.941830	 1.000000 
S299	 0.395597	 0.941830	 0.000000 
S300	 0.302651	 0.916926	 1.000000 
S301	 0.302651	 0.916926	 0.000000 
Mo302	 0.195326	 0.945683	 0.500000 
Mo303	 0.288272	 0.970588	 0.500000 
S304	 0.234609	 0.984967	 1.000000 
S305	 0.234609	 0.984967	 0.000000 
S306	 0.141663	 0.960062	 1.000000 
S307	 0.141663	 0.960062	 0.000000 
S308	 0.971506	 0.837326	 1.000000 
S309	 0.971506	 0.837326	 0.000000 
Mo310	 0.864181	 0.866083	 0.500000 
S311	 0.810519	 0.880462	 1.000000 
S312	 0.810519	 0.880462	 0.000000 
Mo313	 0.703194	 0.909220	 0.500000 
Mo314	 0.547091	 0.004662	 0.500000 
S315	 0.493429	 0.019041	 1.000000 
S316	 0.493429	 0.019041	 0.000000 
S317	 0.649531	 0.923599	 1.000000 
S318	 0.649531	 0.923599	 0.000000 
Mo319	 0.542206	 0.952356	 0.500000 
Mo320	 0.386103	 0.047799	 0.500000 
S321	 0.332441	 0.062178	 1.000000 
S322	 0.332441	 0.062178	 0.000000 
S323	 0.488543	 0.966735	 1.000000 
S324	 0.488543	 0.966735	 0.000000 
Mo325	 0.381218	 0.995493	 0.500000 
Mo326	 0.225116	 0.090935	 0.500000 
S327	 0.171453	 0.105314	 1.000000 
S328	 0.171453	 0.105314	 0.000000 
Mo329	 0.064128	 0.134072	 0.500000 
S330	 0.010466	 0.148451	 1.000000 
S331	 0.010466	 0.148451	 0.000000 
#                 ---end-of-data-block---
