data_Single Layer of MoS2nx 10 ny 6 nz 1
_cell_length_a               32.423991
_cell_length_b               32.423991
_cell_length_c               3.080000
_cell_angle_alpha          90.000000
_cell_angle_beta           90.000000
_cell_angle_gamma          90.000000
_symmetry_cell_setting          Triclinic
_symmetry_space_group_name_H-M 'P 1' 
loop_
_atom_site_label
_atom_site_fract_x
_atom_site_fract_y
_atom_site_fract_z
Mo1	 0.484380	 0.049750	 0.500000 
Mo2	 0.580605	 0.049750	 0.500000 
S3	 0.532492	 0.077528	 1.000000 
S4	 0.532492	 0.077528	 0.000000 
S5	 0.436267	 0.077528	 1.000000 
S6	 0.436267	 0.077528	 0.000000 
Mo7	 0.340042	 0.133084	 0.500000 
Mo8	 0.436267	 0.133084	 0.500000 
S9	 0.388155	 0.160861	 1.000000 
S10	 0.388155	 0.160861	 0.000000 
S11	 0.291930	 0.160861	 1.000000 
S12	 0.291930	 0.160861	 0.000000 
Mo13	 0.195705	 0.216417	 0.500000 
Mo14	 0.291930	 0.216417	 0.500000 
S15	 0.243817	 0.244195	 1.000000 
S16	 0.243817	 0.244195	 0.000000 
S17	 0.147592	 0.244195	 1.000000 
S18	 0.147592	 0.244195	 0.000000 
Mo19	 0.051367	 0.299750	 0.500000 
Mo20	 0.147592	 0.299750	 0.500000 
S21	 0.099479	 0.327528	 1.000000 
S22	 0.099479	 0.327528	 0.000000 
S23	 0.003254	 0.327528	 1.000000 
S24	 0.003254	 0.327528	 0.000000 
Mo25	 0.003254	 0.383084	 0.500000 
Mo26	 0.676830	 0.049750	 0.500000 
Mo27	 0.773055	 0.049750	 0.500000 
S28	 0.724942	 0.077528	 1.000000 
S29	 0.724942	 0.077528	 0.000000 
S30	 0.628717	 0.077528	 1.000000 
S31	 0.628717	 0.077528	 0.000000 
Mo32	 0.532492	 0.133084	 0.500000 
Mo33	 0.628717	 0.133084	 0.500000 
S34	 0.580605	 0.160861	 1.000000 
S35	 0.580605	 0.160861	 0.000000 
S36	 0.484380	 0.160861	 1.000000 
S37	 0.484380	 0.160861	 0.000000 
Mo38	 0.388155	 0.216417	 0.500000 
Mo39	 0.484380	 0.216417	 0.500000 
S40	 0.436267	 0.244195	 1.000000 
S41	 0.436267	 0.244195	 0.000000 
S42	 0.340042	 0.244195	 1.000000 
S43	 0.340042	 0.244195	 0.000000 
Mo44	 0.243817	 0.299750	 0.500000 
Mo45	 0.340042	 0.299750	 0.500000 
S46	 0.291930	 0.327528	 1.000000 
S47	 0.291930	 0.327528	 0.000000 
S48	 0.195705	 0.327528	 1.000000 
S49	 0.195705	 0.327528	 0.000000 
Mo50	 0.099479	 0.383084	 0.500000 
Mo51	 0.195705	 0.383084	 0.500000 
S52	 0.147592	 0.410861	 1.000000 
S53	 0.147592	 0.410861	 0.000000 
S54	 0.051367	 0.410861	 1.000000 
S55	 0.051367	 0.410861	 0.000000 
Mo56	 0.051367	 0.466417	 0.500000 
S57	 0.003254	 0.494195	 1.000000 
S58	 0.003254	 0.494195	 0.000000 
S59	 0.821167	 0.077528	 1.000000 
S60	 0.821167	 0.077528	 0.000000 
Mo61	 0.724942	 0.133084	 0.500000 
Mo62	 0.821167	 0.133084	 0.500000 
S63	 0.773055	 0.160861	 1.000000 
S64	 0.773055	 0.160861	 0.000000 
S65	 0.676830	 0.160861	 1.000000 
S66	 0.676830	 0.160861	 0.000000 
Mo67	 0.580605	 0.216417	 0.500000 
Mo68	 0.676830	 0.216417	 0.500000 
S69	 0.628717	 0.244195	 1.000000 
S70	 0.628717	 0.244195	 0.000000 
S71	 0.532492	 0.244195	 1.000000 
S72	 0.532492	 0.244195	 0.000000 
Mo73	 0.436267	 0.299750	 0.500000 
Mo74	 0.532492	 0.299750	 0.500000 
S75	 0.484380	 0.327528	 1.000000 
S76	 0.484380	 0.327528	 0.000000 
S77	 0.388155	 0.327528	 1.000000 
S78	 0.388155	 0.327528	 0.000000 
Mo79	 0.291930	 0.383084	 0.500000 
Mo80	 0.388155	 0.383084	 0.500000 
S81	 0.340042	 0.410861	 1.000000 
S82	 0.340042	 0.410861	 0.000000 
S83	 0.243817	 0.410861	 1.000000 
S84	 0.243817	 0.410861	 0.000000 
Mo85	 0.147592	 0.466417	 0.500000 
Mo86	 0.243817	 0.466417	 0.500000 
S87	 0.195705	 0.494195	 1.000000 
S88	 0.195705	 0.494195	 0.000000 
S89	 0.099479	 0.494195	 1.000000 
S90	 0.099479	 0.494195	 0.000000 
Mo91	 0.003254	 0.549750	 0.500000 
Mo92	 0.099479	 0.549750	 0.500000 
S93	 0.051367	 0.577528	 1.000000 
S94	 0.051367	 0.577528	 0.000000 
S95	 0.869280	 0.160861	 1.000000 
S96	 0.869280	 0.160861	 0.000000 
Mo97	 0.773055	 0.216417	 0.500000 
Mo98	 0.869280	 0.216417	 0.500000 
S99	 0.821167	 0.244195	 1.000000 
S100	 0.821167	 0.244195	 0.000000 
S101	 0.724942	 0.244195	 1.000000 
S102	 0.724942	 0.244195	 0.000000 
Mo103	 0.628717	 0.299750	 0.500000 
Mo104	 0.724942	 0.299750	 0.500000 
S105	 0.676830	 0.327528	 1.000000 
S106	 0.676830	 0.327528	 0.000000 
S107	 0.580605	 0.327528	 1.000000 
S108	 0.580605	 0.327528	 0.000000 
Mo109	 0.484380	 0.383084	 0.500000 
Mo110	 0.580605	 0.383084	 0.500000 
S111	 0.532492	 0.410861	 1.000000 
S112	 0.532492	 0.410861	 0.000000 
S113	 0.436267	 0.410861	 1.000000 
S114	 0.436267	 0.410861	 0.000000 
Mo115	 0.340042	 0.466417	 0.500000 
Mo116	 0.436267	 0.466417	 0.500000 
S117	 0.388155	 0.494195	 1.000000 
S118	 0.388155	 0.494195	 0.000000 
S119	 0.291930	 0.494195	 1.000000 
S120	 0.291930	 0.494195	 0.000000 
Mo121	 0.195705	 0.549750	 0.500000 
Mo122	 0.291930	 0.549750	 0.500000 
S123	 0.243817	 0.577528	 1.000000 
S124	 0.243817	 0.577528	 0.000000 
S125	 0.147592	 0.577528	 1.000000 
S126	 0.147592	 0.577528	 0.000000 
Mo127	 0.051367	 0.633084	 0.500000 
Mo128	 0.147592	 0.633084	 0.500000 
S129	 0.099479	 0.660861	 1.000000 
S130	 0.099479	 0.660861	 0.000000 
S131	 0.917392	 0.244195	 1.000000 
S132	 0.917392	 0.244195	 0.000000 
Mo133	 0.821167	 0.299750	 0.500000 
Mo134	 0.917392	 0.299750	 0.500000 
S135	 0.869280	 0.327528	 1.000000 
S136	 0.869280	 0.327528	 0.000000 
S137	 0.773055	 0.327528	 1.000000 
S138	 0.773055	 0.327528	 0.000000 
Mo139	 0.676830	 0.383084	 0.500000 
Mo140	 0.773055	 0.383084	 0.500000 
S141	 0.724942	 0.410861	 1.000000 
S142	 0.724942	 0.410861	 0.000000 
S143	 0.628717	 0.410861	 1.000000 
S144	 0.628717	 0.410861	 0.000000 
Mo145	 0.532492	 0.466417	 0.500000 
Mo146	 0.628717	 0.466417	 0.500000 
S147	 0.580605	 0.494195	 1.000000 
S148	 0.580605	 0.494195	 0.000000 
S149	 0.484380	 0.494195	 1.000000 
S150	 0.484380	 0.494195	 0.000000 
Mo151	 0.388155	 0.549750	 0.500000 
Mo152	 0.484380	 0.549750	 0.500000 
S153	 0.436267	 0.577528	 1.000000 
S154	 0.436267	 0.577528	 0.000000 
S155	 0.340042	 0.577528	 1.000000 
S156	 0.340042	 0.577528	 0.000000 
Mo157	 0.243817	 0.633084	 0.500000 
Mo158	 0.340042	 0.633084	 0.500000 
S159	 0.291930	 0.660861	 1.000000 
S160	 0.291930	 0.660861	 0.000000 
S161	 0.195705	 0.660861	 1.000000 
S162	 0.195705	 0.660861	 0.000000 
Mo163	 0.099479	 0.716417	 0.500000 
Mo164	 0.195705	 0.716417	 0.500000 
S165	 0.147592	 0.744195	 1.000000 
S166	 0.147592	 0.744195	 0.000000 
S167	 0.965505	 0.327528	 1.000000 
S168	 0.965505	 0.327528	 0.000000 
Mo169	 0.869280	 0.383084	 0.500000 
Mo170	 0.965505	 0.383084	 0.500000 
S171	 0.917392	 0.410861	 1.000000 
S172	 0.917392	 0.410861	 0.000000 
S173	 0.821167	 0.410861	 1.000000 
S174	 0.821167	 0.410861	 0.000000 
Mo175	 0.724942	 0.466417	 0.500000 
Mo176	 0.821167	 0.466417	 0.500000 
S177	 0.773055	 0.494195	 1.000000 
S178	 0.773055	 0.494195	 0.000000 
S179	 0.676830	 0.494195	 1.000000 
S180	 0.676830	 0.494195	 0.000000 
Mo181	 0.580605	 0.549750	 0.500000 
Mo182	 0.676830	 0.549750	 0.500000 
S183	 0.628717	 0.577528	 1.000000 
S184	 0.628717	 0.577528	 0.000000 
S185	 0.532492	 0.577528	 1.000000 
S186	 0.532492	 0.577528	 0.000000 
Mo187	 0.436267	 0.633084	 0.500000 
Mo188	 0.532492	 0.633084	 0.500000 
S189	 0.484380	 0.660861	 1.000000 
S190	 0.484380	 0.660861	 0.000000 
S191	 0.388155	 0.660861	 1.000000 
S192	 0.388155	 0.660861	 0.000000 
Mo193	 0.291930	 0.716417	 0.500000 
Mo194	 0.388155	 0.716417	 0.500000 
S195	 0.340042	 0.744195	 1.000000 
S196	 0.340042	 0.744195	 0.000000 
S197	 0.243817	 0.744195	 1.000000 
S198	 0.243817	 0.744195	 0.000000 
Mo199	 0.147592	 0.799750	 0.500000 
Mo200	 0.243817	 0.799750	 0.500000 
S201	 0.195705	 0.827528	 1.000000 
S202	 0.195705	 0.827528	 0.000000 
Mo203	 0.917392	 0.466417	 0.500000 
S204	 0.965505	 0.494195	 1.000000 
S205	 0.965505	 0.494195	 0.000000 
S206	 0.869280	 0.494195	 1.000000 
S207	 0.869280	 0.494195	 0.000000 
Mo208	 0.773055	 0.549750	 0.500000 
Mo209	 0.869280	 0.549750	 0.500000 
S210	 0.821167	 0.577528	 1.000000 
S211	 0.821167	 0.577528	 0.000000 
S212	 0.724942	 0.577528	 1.000000 
S213	 0.724942	 0.577528	 0.000000 
Mo214	 0.628717	 0.633084	 0.500000 
Mo215	 0.724942	 0.633084	 0.500000 
S216	 0.676830	 0.660861	 1.000000 
S217	 0.676830	 0.660861	 0.000000 
S218	 0.580605	 0.660861	 1.000000 
S219	 0.580605	 0.660861	 0.000000 
Mo220	 0.484380	 0.716417	 0.500000 
Mo221	 0.580605	 0.716417	 0.500000 
S222	 0.532492	 0.744195	 1.000000 
S223	 0.532492	 0.744195	 0.000000 
S224	 0.436267	 0.744195	 1.000000 
S225	 0.436267	 0.744195	 0.000000 
Mo226	 0.340042	 0.799750	 0.500000 
Mo227	 0.436267	 0.799750	 0.500000 
S228	 0.388155	 0.827528	 1.000000 
S229	 0.388155	 0.827528	 0.000000 
S230	 0.291930	 0.827528	 1.000000 
S231	 0.291930	 0.827528	 0.000000 
Mo232	 0.195705	 0.883084	 0.500000 
Mo233	 0.291930	 0.883084	 0.500000 
S234	 0.243817	 0.910861	 1.000000 
S235	 0.243817	 0.910861	 0.000000 
Mo236	 0.965505	 0.549750	 0.500000 
S237	 0.917392	 0.577528	 1.000000 
S238	 0.917392	 0.577528	 0.000000 
Mo239	 0.821167	 0.633084	 0.500000 
Mo240	 0.917392	 0.633084	 0.500000 
S241	 0.869280	 0.660861	 1.000000 
S242	 0.869280	 0.660861	 0.000000 
S243	 0.773055	 0.660861	 1.000000 
S244	 0.773055	 0.660861	 0.000000 
Mo245	 0.676830	 0.716417	 0.500000 
Mo246	 0.773055	 0.716417	 0.500000 
S247	 0.724942	 0.744195	 1.000000 
S248	 0.724942	 0.744195	 0.000000 
S249	 0.628717	 0.744195	 1.000000 
S250	 0.628717	 0.744195	 0.000000 
Mo251	 0.532492	 0.799750	 0.500000 
Mo252	 0.628717	 0.799750	 0.500000 
S253	 0.580605	 0.827528	 1.000000 
S254	 0.580605	 0.827528	 0.000000 
S255	 0.484380	 0.827528	 1.000000 
S256	 0.484380	 0.827528	 0.000000 
Mo257	 0.388155	 0.883084	 0.500000 
Mo258	 0.484380	 0.883084	 0.500000 
S259	 0.436267	 0.910861	 1.000000 
S260	 0.436267	 0.910861	 0.000000 
S261	 0.340042	 0.910861	 1.000000 
S262	 0.340042	 0.910861	 0.000000 
Mo263	 0.243817	 0.966417	 0.500000 
Mo264	 0.340042	 0.966417	 0.500000 
S265	 0.291930	 0.994195	 1.000000 
S266	 0.291930	 0.994195	 0.000000 
S267	 0.965505	 0.660861	 1.000000 
S268	 0.965505	 0.660861	 0.000000 
Mo269	 0.869280	 0.716417	 0.500000 
Mo270	 0.965505	 0.716417	 0.500000 
S271	 0.917392	 0.744195	 1.000000 
S272	 0.917392	 0.744195	 0.000000 
S273	 0.821167	 0.744195	 1.000000 
S274	 0.821167	 0.744195	 0.000000 
Mo275	 0.724942	 0.799750	 0.500000 
Mo276	 0.821167	 0.799750	 0.500000 
S277	 0.773055	 0.827528	 1.000000 
S278	 0.773055	 0.827528	 0.000000 
S279	 0.676830	 0.827528	 1.000000 
S280	 0.676830	 0.827528	 0.000000 
Mo281	 0.580605	 0.883084	 0.500000 
Mo282	 0.676830	 0.883084	 0.500000 
S283	 0.628717	 0.910861	 1.000000 
S284	 0.628717	 0.910861	 0.000000 
S285	 0.532492	 0.910861	 1.000000 
S286	 0.532492	 0.910861	 0.000000 
Mo287	 0.436267	 0.966417	 0.500000 
Mo288	 0.532492	 0.966417	 0.500000 
S289	 0.484380	 0.994195	 1.000000 
S290	 0.484380	 0.994195	 0.000000 
S291	 0.388155	 0.994195	 1.000000 
S292	 0.388155	 0.994195	 0.000000 
Mo293	 0.917392	 0.799750	 0.500000 
S294	 0.869280	 0.827528	 1.000000 
S295	 0.869280	 0.827528	 0.000000 
Mo296	 0.773055	 0.883084	 0.500000 
Mo297	 0.388155	 0.049750	 0.500000 
S298	 0.340042	 0.077528	 1.000000 
S299	 0.340042	 0.077528	 0.000000 
S300	 0.724942	 0.910861	 1.000000 
S301	 0.724942	 0.910861	 0.000000 
Mo302	 0.628717	 0.966417	 0.500000 
Mo303	 0.243817	 0.133084	 0.500000 
S304	 0.195705	 0.160861	 1.000000 
S305	 0.195705	 0.160861	 0.000000 
S306	 0.580605	 0.994195	 1.000000 
S307	 0.580605	 0.994195	 0.000000 
Mo308	 0.099479	 0.216417	 0.500000 
S309	 0.051367	 0.244195	 1.000000 
S310	 0.051367	 0.244195	 0.000000 
#                 ---end-of-data-block---
