data_Single Layer of MoS2nx 10 ny 6 nz 1
_cell_length_a               32.423991
_cell_length_b               32.423991
_cell_length_c               3.080000
_cell_angle_alpha          90.000000
_cell_angle_beta           90.000000
_cell_angle_gamma          90.000000
_symmetry_cell_setting          Triclinic
_symmetry_space_group_name_H-M 'P 1' 
loop_
_atom_site_label
_atom_site_fract_x
_atom_site_fract_y
_atom_site_fract_z
Mo1	 0.410339	 0.007160	 0.500000 
Mo2	 0.506564	 0.007160	 0.500000 
S3	 0.458451	 0.034937	 1.000000 
S4	 0.458451	 0.034937	 0.000000 
S5	 0.362226	 0.034937	 1.000000 
S6	 0.362226	 0.034937	 0.000000 
Mo7	 0.266001	 0.090493	 0.500000 
Mo8	 0.362226	 0.090493	 0.500000 
S9	 0.314114	 0.118271	 1.000000 
S10	 0.314114	 0.118271	 0.000000 
S11	 0.217889	 0.118271	 1.000000 
S12	 0.217889	 0.118271	 0.000000 
Mo13	 0.121664	 0.173826	 0.500000 
Mo14	 0.217889	 0.173826	 0.500000 
S15	 0.169776	 0.201604	 1.000000 
S16	 0.169776	 0.201604	 0.000000 
S17	 0.073551	 0.201604	 1.000000 
S18	 0.073551	 0.201604	 0.000000 
Mo19	 0.073551	 0.257160	 0.500000 
S20	 0.025438	 0.284937	 1.000000 
S21	 0.025438	 0.284937	 0.000000 
Mo22	 0.602789	 0.007160	 0.500000 
Mo23	 0.699014	 0.007160	 0.500000 
S24	 0.650901	 0.034937	 1.000000 
S25	 0.650901	 0.034937	 0.000000 
S26	 0.554676	 0.034937	 1.000000 
S27	 0.554676	 0.034937	 0.000000 
Mo28	 0.458451	 0.090493	 0.500000 
Mo29	 0.554676	 0.090493	 0.500000 
S30	 0.506564	 0.118271	 1.000000 
S31	 0.506564	 0.118271	 0.000000 
S32	 0.410339	 0.118271	 1.000000 
S33	 0.410339	 0.118271	 0.000000 
Mo34	 0.314114	 0.173826	 0.500000 
Mo35	 0.410339	 0.173826	 0.500000 
S36	 0.362226	 0.201604	 1.000000 
S37	 0.362226	 0.201604	 0.000000 
S38	 0.266001	 0.201604	 1.000000 
S39	 0.266001	 0.201604	 0.000000 
Mo40	 0.169776	 0.257160	 0.500000 
Mo41	 0.266001	 0.257160	 0.500000 
S42	 0.217889	 0.284937	 1.000000 
S43	 0.217889	 0.284937	 0.000000 
S44	 0.121664	 0.284937	 1.000000 
S45	 0.121664	 0.284937	 0.000000 
Mo46	 0.025438	 0.340493	 0.500000 
Mo47	 0.121664	 0.340493	 0.500000 
S48	 0.073551	 0.368271	 1.000000 
S49	 0.073551	 0.368271	 0.000000 
S50	 0.747126	 0.034937	 1.000000 
S51	 0.747126	 0.034937	 0.000000 
Mo52	 0.650901	 0.090493	 0.500000 
Mo53	 0.747126	 0.090493	 0.500000 
S54	 0.699014	 0.118271	 1.000000 
S55	 0.699014	 0.118271	 0.000000 
S56	 0.602789	 0.118271	 1.000000 
S57	 0.602789	 0.118271	 0.000000 
Mo58	 0.506564	 0.173826	 0.500000 
Mo59	 0.602789	 0.173826	 0.500000 
S60	 0.554676	 0.201604	 1.000000 
S61	 0.554676	 0.201604	 0.000000 
S62	 0.458451	 0.201604	 1.000000 
S63	 0.458451	 0.201604	 0.000000 
Mo64	 0.362226	 0.257160	 0.500000 
Mo65	 0.458451	 0.257160	 0.500000 
S66	 0.410339	 0.284937	 1.000000 
S67	 0.410339	 0.284937	 0.000000 
S68	 0.314114	 0.284937	 1.000000 
S69	 0.314114	 0.284937	 0.000000 
Mo70	 0.217889	 0.340493	 0.500000 
Mo71	 0.314114	 0.340493	 0.500000 
S72	 0.266001	 0.368271	 1.000000 
S73	 0.266001	 0.368271	 0.000000 
S74	 0.169776	 0.368271	 1.000000 
S75	 0.169776	 0.368271	 0.000000 
Mo76	 0.073551	 0.423826	 0.500000 
Mo77	 0.169776	 0.423826	 0.500000 
S78	 0.121664	 0.451604	 1.000000 
S79	 0.121664	 0.451604	 0.000000 
S80	 0.025438	 0.451604	 1.000000 
S81	 0.025438	 0.451604	 0.000000 
Mo82	 0.025438	 0.507160	 0.500000 
S83	 0.795239	 0.118271	 1.000000 
S84	 0.795239	 0.118271	 0.000000 
Mo85	 0.699014	 0.173826	 0.500000 
Mo86	 0.795239	 0.173826	 0.500000 
S87	 0.747126	 0.201604	 1.000000 
S88	 0.747126	 0.201604	 0.000000 
S89	 0.650901	 0.201604	 1.000000 
S90	 0.650901	 0.201604	 0.000000 
Mo91	 0.554676	 0.257160	 0.500000 
Mo92	 0.650901	 0.257160	 0.500000 
S93	 0.602789	 0.284937	 1.000000 
S94	 0.602789	 0.284937	 0.000000 
S95	 0.506564	 0.284937	 1.000000 
S96	 0.506564	 0.284937	 0.000000 
Mo97	 0.410339	 0.340493	 0.500000 
Mo98	 0.506564	 0.340493	 0.500000 
S99	 0.458451	 0.368271	 1.000000 
S100	 0.458451	 0.368271	 0.000000 
S101	 0.362226	 0.368271	 1.000000 
S102	 0.362226	 0.368271	 0.000000 
Mo103	 0.266001	 0.423826	 0.500000 
Mo104	 0.362226	 0.423826	 0.500000 
S105	 0.314114	 0.451604	 1.000000 
S106	 0.314114	 0.451604	 0.000000 
S107	 0.217889	 0.451604	 1.000000 
S108	 0.217889	 0.451604	 0.000000 
Mo109	 0.121664	 0.507160	 0.500000 
Mo110	 0.217889	 0.507160	 0.500000 
S111	 0.169776	 0.534937	 1.000000 
S112	 0.169776	 0.534937	 0.000000 
S113	 0.073551	 0.534937	 1.000000 
S114	 0.073551	 0.534937	 0.000000 
Mo115	 0.073551	 0.590493	 0.500000 
S116	 0.025438	 0.618271	 1.000000 
S117	 0.025438	 0.618271	 0.000000 
S118	 0.843351	 0.201604	 1.000000 
S119	 0.843351	 0.201604	 0.000000 
Mo120	 0.747126	 0.257160	 0.500000 
Mo121	 0.843351	 0.257160	 0.500000 
S122	 0.795239	 0.284937	 1.000000 
S123	 0.795239	 0.284937	 0.000000 
S124	 0.699014	 0.284937	 1.000000 
S125	 0.699014	 0.284937	 0.000000 
Mo126	 0.602789	 0.340493	 0.500000 
Mo127	 0.699014	 0.340493	 0.500000 
S128	 0.650901	 0.368271	 1.000000 
S129	 0.650901	 0.368271	 0.000000 
S130	 0.554676	 0.368271	 1.000000 
S131	 0.554676	 0.368271	 0.000000 
Mo132	 0.458451	 0.423826	 0.500000 
Mo133	 0.554676	 0.423826	 0.500000 
S134	 0.506564	 0.451604	 1.000000 
S135	 0.506564	 0.451604	 0.000000 
S136	 0.410339	 0.451604	 1.000000 
S137	 0.410339	 0.451604	 0.000000 
Mo138	 0.314114	 0.507160	 0.500000 
Mo139	 0.410339	 0.507160	 0.500000 
S140	 0.362226	 0.534937	 1.000000 
S141	 0.362226	 0.534937	 0.000000 
S142	 0.266001	 0.534937	 1.000000 
S143	 0.266001	 0.534937	 0.000000 
Mo144	 0.169776	 0.590493	 0.500000 
Mo145	 0.266001	 0.590493	 0.500000 
S146	 0.217889	 0.618271	 1.000000 
S147	 0.217889	 0.618271	 0.000000 
S148	 0.121664	 0.618271	 1.000000 
S149	 0.121664	 0.618271	 0.000000 
Mo150	 0.025438	 0.673826	 0.500000 
Mo151	 0.121664	 0.673826	 0.500000 
S152	 0.073551	 0.701604	 1.000000 
S153	 0.073551	 0.701604	 0.000000 
S154	 0.891464	 0.284937	 1.000000 
S155	 0.891464	 0.284937	 0.000000 
Mo156	 0.795239	 0.340493	 0.500000 
Mo157	 0.891464	 0.340493	 0.500000 
S158	 0.843351	 0.368271	 1.000000 
S159	 0.843351	 0.368271	 0.000000 
S160	 0.747126	 0.368271	 1.000000 
S161	 0.747126	 0.368271	 0.000000 
Mo162	 0.650901	 0.423826	 0.500000 
Mo163	 0.747126	 0.423826	 0.500000 
S164	 0.699014	 0.451604	 1.000000 
S165	 0.699014	 0.451604	 0.000000 
S166	 0.602789	 0.451604	 1.000000 
S167	 0.602789	 0.451604	 0.000000 
Mo168	 0.506564	 0.507160	 0.500000 
Mo169	 0.602789	 0.507160	 0.500000 
S170	 0.554676	 0.534937	 1.000000 
S171	 0.554676	 0.534937	 0.000000 
S172	 0.458451	 0.534937	 1.000000 
S173	 0.458451	 0.534937	 0.000000 
Mo174	 0.362226	 0.590493	 0.500000 
Mo175	 0.458451	 0.590493	 0.500000 
S176	 0.410339	 0.618271	 1.000000 
S177	 0.410339	 0.618271	 0.000000 
S178	 0.314114	 0.618271	 1.000000 
S179	 0.314114	 0.618271	 0.000000 
Mo180	 0.217889	 0.673826	 0.500000 
Mo181	 0.314114	 0.673826	 0.500000 
S182	 0.266001	 0.701604	 1.000000 
S183	 0.266001	 0.701604	 0.000000 
S184	 0.169776	 0.701604	 1.000000 
S185	 0.169776	 0.701604	 0.000000 
Mo186	 0.073551	 0.757160	 0.500000 
Mo187	 0.169776	 0.757160	 0.500000 
S188	 0.121664	 0.784937	 1.000000 
S189	 0.121664	 0.784937	 0.000000 
S190	 0.939576	 0.368271	 1.000000 
S191	 0.939576	 0.368271	 0.000000 
Mo192	 0.843351	 0.423826	 0.500000 
Mo193	 0.939576	 0.423826	 0.500000 
S194	 0.891464	 0.451604	 1.000000 
S195	 0.891464	 0.451604	 0.000000 
S196	 0.795239	 0.451604	 1.000000 
S197	 0.795239	 0.451604	 0.000000 
Mo198	 0.699014	 0.507160	 0.500000 
Mo199	 0.795239	 0.507160	 0.500000 
S200	 0.747126	 0.534937	 1.000000 
S201	 0.747126	 0.534937	 0.000000 
S202	 0.650901	 0.534937	 1.000000 
S203	 0.650901	 0.534937	 0.000000 
Mo204	 0.554676	 0.590493	 0.500000 
Mo205	 0.650901	 0.590493	 0.500000 
S206	 0.602789	 0.618271	 1.000000 
S207	 0.602789	 0.618271	 0.000000 
S208	 0.506564	 0.618271	 1.000000 
S209	 0.506564	 0.618271	 0.000000 
Mo210	 0.410339	 0.673826	 0.500000 
Mo211	 0.506564	 0.673826	 0.500000 
S212	 0.458451	 0.701604	 1.000000 
S213	 0.458451	 0.701604	 0.000000 
S214	 0.362226	 0.701604	 1.000000 
S215	 0.362226	 0.701604	 0.000000 
Mo216	 0.266001	 0.757160	 0.500000 
Mo217	 0.362226	 0.757160	 0.500000 
S218	 0.314114	 0.784937	 1.000000 
S219	 0.314114	 0.784937	 0.000000 
S220	 0.217889	 0.784937	 1.000000 
S221	 0.217889	 0.784937	 0.000000 
Mo222	 0.121664	 0.840493	 0.500000 
Mo223	 0.217889	 0.840493	 0.500000 
S224	 0.169776	 0.868271	 1.000000 
S225	 0.169776	 0.868271	 0.000000 
S226	 0.987689	 0.451604	 1.000000 
S227	 0.987689	 0.451604	 0.000000 
Mo228	 0.891464	 0.507160	 0.500000 
Mo229	 0.987689	 0.507160	 0.500000 
S230	 0.939576	 0.534937	 1.000000 
S231	 0.939576	 0.534937	 0.000000 
S232	 0.843351	 0.534937	 1.000000 
S233	 0.843351	 0.534937	 0.000000 
Mo234	 0.747126	 0.590493	 0.500000 
Mo235	 0.843351	 0.590493	 0.500000 
S236	 0.795239	 0.618271	 1.000000 
S237	 0.795239	 0.618271	 0.000000 
S238	 0.699014	 0.618271	 1.000000 
S239	 0.699014	 0.618271	 0.000000 
Mo240	 0.602789	 0.673826	 0.500000 
Mo241	 0.699014	 0.673826	 0.500000 
S242	 0.650901	 0.701604	 1.000000 
S243	 0.650901	 0.701604	 0.000000 
S244	 0.554676	 0.701604	 1.000000 
S245	 0.554676	 0.701604	 0.000000 
Mo246	 0.458451	 0.757160	 0.500000 
Mo247	 0.554676	 0.757160	 0.500000 
S248	 0.506564	 0.784937	 1.000000 
S249	 0.506564	 0.784937	 0.000000 
S250	 0.410339	 0.784937	 1.000000 
S251	 0.410339	 0.784937	 0.000000 
Mo252	 0.314114	 0.840493	 0.500000 
Mo253	 0.410339	 0.840493	 0.500000 
S254	 0.362226	 0.868271	 1.000000 
S255	 0.362226	 0.868271	 0.000000 
S256	 0.266001	 0.868271	 1.000000 
S257	 0.266001	 0.868271	 0.000000 
Mo258	 0.169776	 0.923826	 0.500000 
Mo259	 0.266001	 0.923826	 0.500000 
S260	 0.217889	 0.951604	 1.000000 
S261	 0.217889	 0.951604	 0.000000 
Mo262	 0.939576	 0.590493	 0.500000 
S263	 0.987689	 0.618271	 1.000000 
S264	 0.987689	 0.618271	 0.000000 
S265	 0.891464	 0.618271	 1.000000 
S266	 0.891464	 0.618271	 0.000000 
Mo267	 0.795239	 0.673826	 0.500000 
Mo268	 0.891464	 0.673826	 0.500000 
S269	 0.843351	 0.701604	 1.000000 
S270	 0.843351	 0.701604	 0.000000 
S271	 0.747126	 0.701604	 1.000000 
S272	 0.747126	 0.701604	 0.000000 
Mo273	 0.650901	 0.757160	 0.500000 
Mo274	 0.747126	 0.757160	 0.500000 
S275	 0.699014	 0.784937	 1.000000 
S276	 0.699014	 0.784937	 0.000000 
S277	 0.602789	 0.784937	 1.000000 
S278	 0.602789	 0.784937	 0.000000 
Mo279	 0.506564	 0.840493	 0.500000 
Mo280	 0.602789	 0.840493	 0.500000 
S281	 0.554676	 0.868271	 1.000000 
S282	 0.554676	 0.868271	 0.000000 
S283	 0.458451	 0.868271	 1.000000 
S284	 0.458451	 0.868271	 0.000000 
Mo285	 0.362226	 0.923826	 0.500000 
Mo286	 0.458451	 0.923826	 0.500000 
S287	 0.410339	 0.951604	 1.000000 
S288	 0.410339	 0.951604	 0.000000 
S289	 0.314114	 0.951604	 1.000000 
S290	 0.314114	 0.951604	 0.000000 
Mo291	 0.987689	 0.673826	 0.500000 
S292	 0.939576	 0.701604	 1.000000 
S293	 0.939576	 0.701604	 0.000000 
Mo294	 0.843351	 0.757160	 0.500000 
Mo295	 0.939576	 0.757160	 0.500000 
S296	 0.891464	 0.784937	 1.000000 
S297	 0.891464	 0.784937	 0.000000 
S298	 0.795239	 0.784937	 1.000000 
S299	 0.795239	 0.784937	 0.000000 
Mo300	 0.699014	 0.840493	 0.500000 
Mo301	 0.795239	 0.840493	 0.500000 
S302	 0.747126	 0.868271	 1.000000 
S303	 0.747126	 0.868271	 0.000000 
S304	 0.650901	 0.868271	 1.000000 
S305	 0.650901	 0.868271	 0.000000 
Mo306	 0.554676	 0.923826	 0.500000 
Mo307	 0.650901	 0.923826	 0.500000 
S308	 0.602789	 0.951604	 1.000000 
S309	 0.602789	 0.951604	 0.000000 
S310	 0.506564	 0.951604	 1.000000 
S311	 0.506564	 0.951604	 0.000000 
#                 ---end-of-data-block---
