data_Single Layer of MoS2nx 10 ny 6 nz 1
_cell_length_a               32.423991
_cell_length_b               32.423991
_cell_length_c               3.080000
_cell_angle_alpha          90.000000
_cell_angle_beta           90.000000
_cell_angle_gamma          90.000000
_symmetry_cell_setting          Triclinic
_symmetry_space_group_name_H-M 'P 1' 
loop_
_atom_site_label
_atom_site_fract_x
_atom_site_fract_y
_atom_site_fract_z
Mo1	 0.395475	 0.022333	 0.500000 
Mo2	 0.491700	 0.022333	 0.500000 
S3	 0.443588	 0.050110	 1.000000 
S4	 0.443588	 0.050110	 0.000000 
S5	 0.347363	 0.050110	 1.000000 
S6	 0.347363	 0.050110	 0.000000 
Mo7	 0.251138	 0.105666	 0.500000 
Mo8	 0.347363	 0.105666	 0.500000 
S9	 0.299250	 0.133444	 1.000000 
S10	 0.299250	 0.133444	 0.000000 
S11	 0.203025	 0.133444	 1.000000 
S12	 0.203025	 0.133444	 0.000000 
Mo13	 0.106800	 0.188999	 0.500000 
Mo14	 0.203025	 0.188999	 0.500000 
S15	 0.154913	 0.216777	 1.000000 
S16	 0.154913	 0.216777	 0.000000 
S17	 0.058688	 0.216777	 1.000000 
S18	 0.058688	 0.216777	 0.000000 
Mo19	 0.058688	 0.272333	 0.500000 
S20	 0.010575	 0.300110	 1.000000 
S21	 0.010575	 0.300110	 0.000000 
Mo22	 0.587925	 0.022333	 0.500000 
Mo23	 0.684150	 0.022333	 0.500000 
S24	 0.636038	 0.050110	 1.000000 
S25	 0.636038	 0.050110	 0.000000 
S26	 0.539813	 0.050110	 1.000000 
S27	 0.539813	 0.050110	 0.000000 
Mo28	 0.443588	 0.105666	 0.500000 
Mo29	 0.539813	 0.105666	 0.500000 
S30	 0.491700	 0.133444	 1.000000 
S31	 0.491700	 0.133444	 0.000000 
S32	 0.395475	 0.133444	 1.000000 
S33	 0.395475	 0.133444	 0.000000 
Mo34	 0.299250	 0.188999	 0.500000 
Mo35	 0.395475	 0.188999	 0.500000 
S36	 0.347363	 0.216777	 1.000000 
S37	 0.347363	 0.216777	 0.000000 
S38	 0.251138	 0.216777	 1.000000 
S39	 0.251138	 0.216777	 0.000000 
Mo40	 0.154913	 0.272333	 0.500000 
Mo41	 0.251138	 0.272333	 0.500000 
S42	 0.203025	 0.300110	 1.000000 
S43	 0.203025	 0.300110	 0.000000 
S44	 0.106800	 0.300110	 1.000000 
S45	 0.106800	 0.300110	 0.000000 
Mo46	 0.010575	 0.355666	 0.500000 
Mo47	 0.106800	 0.355666	 0.500000 
S48	 0.058688	 0.383444	 1.000000 
S49	 0.058688	 0.383444	 0.000000 
S50	 0.732263	 0.050110	 1.000000 
S51	 0.732263	 0.050110	 0.000000 
Mo52	 0.636038	 0.105666	 0.500000 
Mo53	 0.732263	 0.105666	 0.500000 
S54	 0.684150	 0.133444	 1.000000 
S55	 0.684150	 0.133444	 0.000000 
S56	 0.587925	 0.133444	 1.000000 
S57	 0.587925	 0.133444	 0.000000 
Mo58	 0.491700	 0.188999	 0.500000 
Mo59	 0.587925	 0.188999	 0.500000 
S60	 0.539813	 0.216777	 1.000000 
S61	 0.539813	 0.216777	 0.000000 
S62	 0.443588	 0.216777	 1.000000 
S63	 0.443588	 0.216777	 0.000000 
Mo64	 0.347363	 0.272333	 0.500000 
Mo65	 0.443588	 0.272333	 0.500000 
S66	 0.395475	 0.300110	 1.000000 
S67	 0.395475	 0.300110	 0.000000 
S68	 0.299250	 0.300110	 1.000000 
S69	 0.299250	 0.300110	 0.000000 
Mo70	 0.203025	 0.355666	 0.500000 
Mo71	 0.299250	 0.355666	 0.500000 
S72	 0.251138	 0.383444	 1.000000 
S73	 0.251138	 0.383444	 0.000000 
S74	 0.154913	 0.383444	 1.000000 
S75	 0.154913	 0.383444	 0.000000 
Mo76	 0.058688	 0.438999	 0.500000 
Mo77	 0.154913	 0.438999	 0.500000 
S78	 0.106800	 0.466777	 1.000000 
S79	 0.106800	 0.466777	 0.000000 
S80	 0.010575	 0.466777	 1.000000 
S81	 0.010575	 0.466777	 0.000000 
Mo82	 0.780375	 0.022333	 0.500000 
Mo83	 0.010575	 0.522333	 0.500000 
S84	 0.780375	 0.133444	 1.000000 
S85	 0.780375	 0.133444	 0.000000 
Mo86	 0.684150	 0.188999	 0.500000 
Mo87	 0.780375	 0.188999	 0.500000 
S88	 0.732263	 0.216777	 1.000000 
S89	 0.732263	 0.216777	 0.000000 
S90	 0.636038	 0.216777	 1.000000 
S91	 0.636038	 0.216777	 0.000000 
Mo92	 0.539813	 0.272333	 0.500000 
Mo93	 0.636038	 0.272333	 0.500000 
S94	 0.587925	 0.300110	 1.000000 
S95	 0.587925	 0.300110	 0.000000 
S96	 0.491700	 0.300110	 1.000000 
S97	 0.491700	 0.300110	 0.000000 
Mo98	 0.395475	 0.355666	 0.500000 
Mo99	 0.491700	 0.355666	 0.500000 
S100	 0.443588	 0.383444	 1.000000 
S101	 0.443588	 0.383444	 0.000000 
S102	 0.347363	 0.383444	 1.000000 
S103	 0.347363	 0.383444	 0.000000 
Mo104	 0.251138	 0.438999	 0.500000 
Mo105	 0.347363	 0.438999	 0.500000 
S106	 0.299250	 0.466777	 1.000000 
S107	 0.299250	 0.466777	 0.000000 
S108	 0.203025	 0.466777	 1.000000 
S109	 0.203025	 0.466777	 0.000000 
Mo110	 0.106800	 0.522333	 0.500000 
Mo111	 0.203025	 0.522333	 0.500000 
S112	 0.154913	 0.550110	 1.000000 
S113	 0.154913	 0.550110	 0.000000 
S114	 0.058688	 0.550110	 1.000000 
S115	 0.058688	 0.550110	 0.000000 
Mo116	 0.828488	 0.105666	 0.500000 
Mo117	 0.058688	 0.605666	 0.500000 
S118	 0.010575	 0.633444	 1.000000 
S119	 0.010575	 0.633444	 0.000000 
S120	 0.828488	 0.216777	 1.000000 
S121	 0.828488	 0.216777	 0.000000 
Mo122	 0.732263	 0.272333	 0.500000 
Mo123	 0.828488	 0.272333	 0.500000 
S124	 0.780375	 0.300110	 1.000000 
S125	 0.780375	 0.300110	 0.000000 
S126	 0.684150	 0.300110	 1.000000 
S127	 0.684150	 0.300110	 0.000000 
Mo128	 0.587925	 0.355666	 0.500000 
Mo129	 0.684150	 0.355666	 0.500000 
S130	 0.636038	 0.383444	 1.000000 
S131	 0.636038	 0.383444	 0.000000 
S132	 0.539813	 0.383444	 1.000000 
S133	 0.539813	 0.383444	 0.000000 
Mo134	 0.443588	 0.438999	 0.500000 
Mo135	 0.539813	 0.438999	 0.500000 
S136	 0.491700	 0.466777	 1.000000 
S137	 0.491700	 0.466777	 0.000000 
S138	 0.395475	 0.466777	 1.000000 
S139	 0.395475	 0.466777	 0.000000 
Mo140	 0.299250	 0.522333	 0.500000 
Mo141	 0.395475	 0.522333	 0.500000 
S142	 0.347363	 0.550110	 1.000000 
S143	 0.347363	 0.550110	 0.000000 
S144	 0.251138	 0.550110	 1.000000 
S145	 0.251138	 0.550110	 0.000000 
Mo146	 0.154913	 0.605666	 0.500000 
Mo147	 0.251138	 0.605666	 0.500000 
S148	 0.203025	 0.633444	 1.000000 
S149	 0.203025	 0.633444	 0.000000 
S150	 0.106800	 0.633444	 1.000000 
S151	 0.106800	 0.633444	 0.000000 
Mo152	 0.876601	 0.188999	 0.500000 
Mo153	 0.106800	 0.688999	 0.500000 
S154	 0.058688	 0.716777	 1.000000 
S155	 0.058688	 0.716777	 0.000000 
S156	 0.876601	 0.300110	 1.000000 
S157	 0.876601	 0.300110	 0.000000 
Mo158	 0.780375	 0.355666	 0.500000 
Mo159	 0.876601	 0.355666	 0.500000 
S160	 0.828488	 0.383444	 1.000000 
S161	 0.828488	 0.383444	 0.000000 
S162	 0.732263	 0.383444	 1.000000 
S163	 0.732263	 0.383444	 0.000000 
Mo164	 0.636038	 0.438999	 0.500000 
Mo165	 0.732263	 0.438999	 0.500000 
S166	 0.684150	 0.466777	 1.000000 
S167	 0.684150	 0.466777	 0.000000 
S168	 0.587925	 0.466777	 1.000000 
S169	 0.587925	 0.466777	 0.000000 
Mo170	 0.491700	 0.522333	 0.500000 
Mo171	 0.587925	 0.522333	 0.500000 
S172	 0.539813	 0.550110	 1.000000 
S173	 0.539813	 0.550110	 0.000000 
S174	 0.443588	 0.550110	 1.000000 
S175	 0.443588	 0.550110	 0.000000 
Mo176	 0.347363	 0.605666	 0.500000 
Mo177	 0.443588	 0.605666	 0.500000 
S178	 0.395475	 0.633444	 1.000000 
S179	 0.395475	 0.633444	 0.000000 
S180	 0.299250	 0.633444	 1.000000 
S181	 0.299250	 0.633444	 0.000000 
Mo182	 0.203025	 0.688999	 0.500000 
Mo183	 0.299250	 0.688999	 0.500000 
S184	 0.251138	 0.716777	 1.000000 
S185	 0.251138	 0.716777	 0.000000 
S186	 0.154913	 0.716777	 1.000000 
S187	 0.154913	 0.716777	 0.000000 
Mo188	 0.924713	 0.272333	 0.500000 
Mo189	 0.154913	 0.772333	 0.500000 
S190	 0.106800	 0.800110	 1.000000 
S191	 0.106800	 0.800110	 0.000000 
S192	 0.924713	 0.383444	 1.000000 
S193	 0.924713	 0.383444	 0.000000 
Mo194	 0.828488	 0.438999	 0.500000 
Mo195	 0.924713	 0.438999	 0.500000 
S196	 0.876601	 0.466777	 1.000000 
S197	 0.876601	 0.466777	 0.000000 
S198	 0.780375	 0.466777	 1.000000 
S199	 0.780375	 0.466777	 0.000000 
Mo200	 0.684150	 0.522333	 0.500000 
Mo201	 0.780375	 0.522333	 0.500000 
S202	 0.732263	 0.550110	 1.000000 
S203	 0.732263	 0.550110	 0.000000 
S204	 0.636038	 0.550110	 1.000000 
S205	 0.636038	 0.550110	 0.000000 
Mo206	 0.539813	 0.605666	 0.500000 
Mo207	 0.636038	 0.605666	 0.500000 
S208	 0.587925	 0.633444	 1.000000 
S209	 0.587925	 0.633444	 0.000000 
S210	 0.491700	 0.633444	 1.000000 
S211	 0.491700	 0.633444	 0.000000 
Mo212	 0.395475	 0.688999	 0.500000 
Mo213	 0.491700	 0.688999	 0.500000 
S214	 0.443588	 0.716777	 1.000000 
S215	 0.443588	 0.716777	 0.000000 
S216	 0.347363	 0.716777	 1.000000 
S217	 0.347363	 0.716777	 0.000000 
Mo218	 0.251138	 0.772333	 0.500000 
Mo219	 0.347363	 0.772333	 0.500000 
S220	 0.299250	 0.800110	 1.000000 
S221	 0.299250	 0.800110	 0.000000 
S222	 0.203025	 0.800110	 1.000000 
S223	 0.203025	 0.800110	 0.000000 
Mo224	 0.972826	 0.355666	 0.500000 
Mo225	 0.203025	 0.855666	 0.500000 
S226	 0.154913	 0.883444	 1.000000 
S227	 0.154913	 0.883444	 0.000000 
S228	 0.972826	 0.466777	 1.000000 
S229	 0.972826	 0.466777	 0.000000 
Mo230	 0.876601	 0.522333	 0.500000 
Mo231	 0.972826	 0.522333	 0.500000 
S232	 0.924713	 0.550110	 1.000000 
S233	 0.924713	 0.550110	 0.000000 
S234	 0.828488	 0.550110	 1.000000 
S235	 0.828488	 0.550110	 0.000000 
Mo236	 0.732263	 0.605666	 0.500000 
Mo237	 0.828488	 0.605666	 0.500000 
S238	 0.780375	 0.633444	 1.000000 
S239	 0.780375	 0.633444	 0.000000 
S240	 0.684150	 0.633444	 1.000000 
S241	 0.684150	 0.633444	 0.000000 
Mo242	 0.587925	 0.688999	 0.500000 
Mo243	 0.684150	 0.688999	 0.500000 
S244	 0.636038	 0.716777	 1.000000 
S245	 0.636038	 0.716777	 0.000000 
S246	 0.539813	 0.716777	 1.000000 
S247	 0.539813	 0.716777	 0.000000 
Mo248	 0.443588	 0.772333	 0.500000 
Mo249	 0.539813	 0.772333	 0.500000 
S250	 0.491700	 0.800110	 1.000000 
S251	 0.491700	 0.800110	 0.000000 
S252	 0.395475	 0.800110	 1.000000 
S253	 0.395475	 0.800110	 0.000000 
Mo254	 0.299250	 0.855666	 0.500000 
Mo255	 0.395475	 0.855666	 0.500000 
S256	 0.347363	 0.883444	 1.000000 
S257	 0.347363	 0.883444	 0.000000 
S258	 0.251138	 0.883444	 1.000000 
S259	 0.251138	 0.883444	 0.000000 
Mo260	 0.251138	 0.938999	 0.500000 
S261	 0.203025	 0.966777	 1.000000 
S262	 0.203025	 0.966777	 0.000000 
Mo263	 0.924713	 0.605666	 0.500000 
S264	 0.972826	 0.633444	 1.000000 
S265	 0.972826	 0.633444	 0.000000 
S266	 0.876601	 0.633444	 1.000000 
S267	 0.876601	 0.633444	 0.000000 
Mo268	 0.780375	 0.688999	 0.500000 
Mo269	 0.876601	 0.688999	 0.500000 
S270	 0.828488	 0.716777	 1.000000 
S271	 0.828488	 0.716777	 0.000000 
S272	 0.732263	 0.716777	 1.000000 
S273	 0.732263	 0.716777	 0.000000 
Mo274	 0.636038	 0.772333	 0.500000 
Mo275	 0.732263	 0.772333	 0.500000 
S276	 0.684150	 0.800110	 1.000000 
S277	 0.684150	 0.800110	 0.000000 
S278	 0.587925	 0.800110	 1.000000 
S279	 0.587925	 0.800110	 0.000000 
Mo280	 0.491700	 0.855666	 0.500000 
Mo281	 0.587925	 0.855666	 0.500000 
S282	 0.539813	 0.883444	 1.000000 
S283	 0.539813	 0.883444	 0.000000 
S284	 0.443588	 0.883444	 1.000000 
S285	 0.443588	 0.883444	 0.000000 
Mo286	 0.347363	 0.938999	 0.500000 
Mo287	 0.443588	 0.938999	 0.500000 
S288	 0.395475	 0.966777	 1.000000 
S289	 0.395475	 0.966777	 0.000000 
S290	 0.299250	 0.966777	 1.000000 
S291	 0.299250	 0.966777	 0.000000 
Mo292	 0.972826	 0.688999	 0.500000 
S293	 0.924713	 0.716777	 1.000000 
S294	 0.924713	 0.716777	 0.000000 
Mo295	 0.828488	 0.772333	 0.500000 
Mo296	 0.924713	 0.772333	 0.500000 
S297	 0.876601	 0.800110	 1.000000 
S298	 0.876601	 0.800110	 0.000000 
S299	 0.780375	 0.800110	 1.000000 
S300	 0.780375	 0.800110	 0.000000 
Mo301	 0.684150	 0.855666	 0.500000 
Mo302	 0.780375	 0.855666	 0.500000 
S303	 0.732263	 0.883444	 1.000000 
S304	 0.732263	 0.883444	 0.000000 
S305	 0.636038	 0.883444	 1.000000 
S306	 0.636038	 0.883444	 0.000000 
Mo307	 0.539813	 0.938999	 0.500000 
Mo308	 0.636038	 0.938999	 0.500000 
S309	 0.587925	 0.966777	 1.000000 
S310	 0.587925	 0.966777	 0.000000 
S311	 0.491700	 0.966777	 1.000000 
S312	 0.491700	 0.966777	 0.000000 
#                 ---end-of-data-block---
