data_Single Layer of MoS2nx 10 ny 6 nz 1
_cell_length_a               32.423991
_cell_length_b               32.423991
_cell_length_c               3.080000
_cell_angle_alpha          90.000000
_cell_angle_beta           90.000000
_cell_angle_gamma          90.000000
_symmetry_cell_setting          Triclinic
_symmetry_space_group_name_H-M 'P 1' 
loop_
_atom_site_label
_atom_site_fract_x
_atom_site_fract_y
_atom_site_fract_z
Mo1	 0.705653	 0.020586	 0.500000 
S2	 0.651991	 0.034965	 1.000000 
S3	 0.651991	 0.034965	 0.000000 
S4	 0.559045	 0.010060	 1.000000 
S5	 0.559045	 0.010060	 0.000000 
Mo6	 0.451720	 0.038818	 0.500000 
Mo7	 0.544666	 0.063723	 0.500000 
S8	 0.491003	 0.078101	 1.000000 
S9	 0.491003	 0.078101	 0.000000 
S10	 0.398057	 0.053197	 1.000000 
S11	 0.398057	 0.053197	 0.000000 
Mo12	 0.290732	 0.081954	 0.500000 
Mo13	 0.383678	 0.106859	 0.500000 
S14	 0.330016	 0.121238	 1.000000 
S15	 0.330016	 0.121238	 0.000000 
S16	 0.237069	 0.096333	 1.000000 
S17	 0.237069	 0.096333	 0.000000 
Mo18	 0.129744	 0.125091	 0.500000 
Mo19	 0.222691	 0.149996	 0.500000 
S20	 0.169028	 0.164374	 1.000000 
S21	 0.169028	 0.164374	 0.000000 
S22	 0.076082	 0.139470	 1.000000 
S23	 0.076082	 0.139470	 0.000000 
Mo24	 0.061703	 0.193132	 0.500000 
S25	 0.008040	 0.207511	 1.000000 
S26	 0.008040	 0.207511	 0.000000 
S27	 0.744937	 0.059870	 1.000000 
S28	 0.744937	 0.059870	 0.000000 
Mo29	 0.637612	 0.088627	 0.500000 
Mo30	 0.730558	 0.113532	 0.500000 
S31	 0.676896	 0.127911	 1.000000 
S32	 0.676896	 0.127911	 0.000000 
S33	 0.583950	 0.103006	 1.000000 
S34	 0.583950	 0.103006	 0.000000 
Mo35	 0.476624	 0.131764	 0.500000 
Mo36	 0.569571	 0.156669	 0.500000 
S37	 0.515908	 0.171048	 1.000000 
S38	 0.515908	 0.171048	 0.000000 
S39	 0.422962	 0.146143	 1.000000 
S40	 0.422962	 0.146143	 0.000000 
Mo41	 0.315637	 0.174900	 0.500000 
Mo42	 0.408583	 0.199805	 0.500000 
S43	 0.354921	 0.214184	 1.000000 
S44	 0.354921	 0.214184	 0.000000 
S45	 0.261974	 0.189279	 1.000000 
S46	 0.261974	 0.189279	 0.000000 
Mo47	 0.154649	 0.218037	 0.500000 
Mo48	 0.247595	 0.242942	 0.500000 
S49	 0.193933	 0.257321	 1.000000 
S50	 0.193933	 0.257321	 0.000000 
S51	 0.100987	 0.232416	 1.000000 
S52	 0.100987	 0.232416	 0.000000 
Mo53	 0.086608	 0.286078	 0.500000 
S54	 0.032945	 0.300457	 1.000000 
S55	 0.032945	 0.300457	 0.000000 
Mo56	 0.798600	 0.045491	 0.500000 
Mo57	 0.891546	 0.070396	 0.500000 
S58	 0.837883	 0.084775	 1.000000 
S59	 0.837883	 0.084775	 0.000000 
S60	 0.769842	 0.152816	 1.000000 
S61	 0.769842	 0.152816	 0.000000 
Mo62	 0.662517	 0.181574	 0.500000 
Mo63	 0.755463	 0.206479	 0.500000 
S64	 0.701801	 0.220857	 1.000000 
S65	 0.701801	 0.220857	 0.000000 
S66	 0.608854	 0.195953	 1.000000 
S67	 0.608854	 0.195953	 0.000000 
Mo68	 0.501529	 0.224710	 0.500000 
Mo69	 0.594476	 0.249615	 0.500000 
S70	 0.540813	 0.263994	 1.000000 
S71	 0.540813	 0.263994	 0.000000 
S72	 0.447867	 0.239089	 1.000000 
S73	 0.447867	 0.239089	 0.000000 
Mo74	 0.340542	 0.267847	 0.500000 
Mo75	 0.433488	 0.292752	 0.500000 
S76	 0.379825	 0.307130	 1.000000 
S77	 0.379825	 0.307130	 0.000000 
S78	 0.286879	 0.282226	 1.000000 
S79	 0.286879	 0.282226	 0.000000 
Mo80	 0.179554	 0.310983	 0.500000 
Mo81	 0.272500	 0.335888	 0.500000 
S82	 0.218838	 0.350267	 1.000000 
S83	 0.218838	 0.350267	 0.000000 
S84	 0.125892	 0.325362	 1.000000 
S85	 0.125892	 0.325362	 0.000000 
Mo86	 0.018566	 0.354120	 0.500000 
Mo87	 0.111513	 0.379025	 0.500000 
S88	 0.057850	 0.393403	 1.000000 
S89	 0.057850	 0.393403	 0.000000 
Mo90	 0.823505	 0.138437	 0.500000 
Mo91	 0.916451	 0.163342	 0.500000 
S92	 0.862788	 0.177721	 1.000000 
S93	 0.862788	 0.177721	 0.000000 
S94	 0.794747	 0.245762	 1.000000 
S95	 0.794747	 0.245762	 0.000000 
Mo96	 0.687422	 0.274520	 0.500000 
Mo97	 0.780368	 0.299425	 0.500000 
S98	 0.726706	 0.313804	 1.000000 
S99	 0.726706	 0.313804	 0.000000 
S100	 0.633759	 0.288899	 1.000000 
S101	 0.633759	 0.288899	 0.000000 
Mo102	 0.526434	 0.317656	 0.500000 
Mo103	 0.619380	 0.342561	 0.500000 
S104	 0.565718	 0.356940	 1.000000 
S105	 0.565718	 0.356940	 0.000000 
S106	 0.472772	 0.332035	 1.000000 
S107	 0.472772	 0.332035	 0.000000 
Mo108	 0.365447	 0.360793	 0.500000 
Mo109	 0.458393	 0.385698	 0.500000 
S110	 0.404730	 0.400077	 1.000000 
S111	 0.404730	 0.400077	 0.000000 
S112	 0.311784	 0.375172	 1.000000 
S113	 0.311784	 0.375172	 0.000000 
Mo114	 0.204459	 0.403929	 0.500000 
Mo115	 0.297405	 0.428834	 0.500000 
S116	 0.243743	 0.443213	 1.000000 
S117	 0.243743	 0.443213	 0.000000 
S118	 0.150796	 0.418308	 1.000000 
S119	 0.150796	 0.418308	 0.000000 
Mo120	 0.043471	 0.447066	 0.500000 
Mo121	 0.136418	 0.471971	 0.500000 
S122	 0.082755	 0.486350	 1.000000 
S123	 0.082755	 0.486350	 0.000000 
Mo124	 0.848409	 0.231383	 0.500000 
Mo125	 0.941356	 0.256288	 0.500000 
S126	 0.887693	 0.270667	 1.000000 
S127	 0.887693	 0.270667	 0.000000 
S128	 0.819652	 0.338709	 1.000000 
S129	 0.819652	 0.338709	 0.000000 
Mo130	 0.712327	 0.367466	 0.500000 
Mo131	 0.805273	 0.392371	 0.500000 
S132	 0.751610	 0.406750	 1.000000 
S133	 0.751610	 0.406750	 0.000000 
S134	 0.658664	 0.381845	 1.000000 
S135	 0.658664	 0.381845	 0.000000 
Mo136	 0.551339	 0.410603	 0.500000 
Mo137	 0.644285	 0.435508	 0.500000 
S138	 0.590623	 0.449886	 1.000000 
S139	 0.590623	 0.449886	 0.000000 
S140	 0.497677	 0.424982	 1.000000 
S141	 0.497677	 0.424982	 0.000000 
Mo142	 0.390351	 0.453739	 0.500000 
Mo143	 0.483298	 0.478644	 0.500000 
S144	 0.429635	 0.493023	 1.000000 
S145	 0.429635	 0.493023	 0.000000 
S146	 0.336689	 0.468118	 1.000000 
S147	 0.336689	 0.468118	 0.000000 
Mo148	 0.229364	 0.496876	 0.500000 
Mo149	 0.322310	 0.521781	 0.500000 
S150	 0.268648	 0.536159	 1.000000 
S151	 0.268648	 0.536159	 0.000000 
S152	 0.175701	 0.511255	 1.000000 
S153	 0.175701	 0.511255	 0.000000 
Mo154	 0.068376	 0.540012	 0.500000 
Mo155	 0.161322	 0.564917	 0.500000 
S156	 0.107660	 0.579296	 1.000000 
S157	 0.107660	 0.579296	 0.000000 
S158	 0.014714	 0.554391	 1.000000 
S159	 0.014714	 0.554391	 0.000000 
Mo160	 0.873314	 0.324330	 0.500000 
Mo161	 0.966261	 0.349235	 0.500000 
S162	 0.912598	 0.363613	 1.000000 
S163	 0.912598	 0.363613	 0.000000 
S164	 0.844557	 0.431655	 1.000000 
S165	 0.844557	 0.431655	 0.000000 
Mo166	 0.737232	 0.460412	 0.500000 
Mo167	 0.830178	 0.485317	 0.500000 
S168	 0.776515	 0.499696	 1.000000 
S169	 0.776515	 0.499696	 0.000000 
S170	 0.683569	 0.474791	 1.000000 
S171	 0.683569	 0.474791	 0.000000 
Mo172	 0.576244	 0.503549	 0.500000 
Mo173	 0.669190	 0.528454	 0.500000 
S174	 0.615528	 0.542833	 1.000000 
S175	 0.615528	 0.542833	 0.000000 
S176	 0.522581	 0.517928	 1.000000 
S177	 0.522581	 0.517928	 0.000000 
Mo178	 0.415256	 0.546685	 0.500000 
Mo179	 0.508203	 0.571590	 0.500000 
S180	 0.454540	 0.585969	 1.000000 
S181	 0.454540	 0.585969	 0.000000 
S182	 0.361594	 0.561064	 1.000000 
S183	 0.361594	 0.561064	 0.000000 
Mo184	 0.254269	 0.589822	 0.500000 
Mo185	 0.347215	 0.614727	 0.500000 
S186	 0.293552	 0.629106	 1.000000 
S187	 0.293552	 0.629106	 0.000000 
S188	 0.200606	 0.604201	 1.000000 
S189	 0.200606	 0.604201	 0.000000 
Mo190	 0.093281	 0.632959	 0.500000 
Mo191	 0.186227	 0.657863	 0.500000 
S192	 0.132565	 0.672242	 1.000000 
S193	 0.132565	 0.672242	 0.000000 
S194	 0.039618	 0.647337	 1.000000 
S195	 0.039618	 0.647337	 0.000000 
Mo196	 0.898219	 0.417276	 0.500000 
Mo197	 0.991165	 0.442181	 0.500000 
S198	 0.937503	 0.456560	 1.000000 
S199	 0.937503	 0.456560	 0.000000 
S200	 0.869462	 0.524601	 1.000000 
S201	 0.869462	 0.524601	 0.000000 
Mo202	 0.762136	 0.553359	 0.500000 
Mo203	 0.855083	 0.578264	 0.500000 
S204	 0.801420	 0.592642	 1.000000 
S205	 0.801420	 0.592642	 0.000000 
S206	 0.708474	 0.567738	 1.000000 
S207	 0.708474	 0.567738	 0.000000 
Mo208	 0.601149	 0.596495	 0.500000 
Mo209	 0.694095	 0.621400	 0.500000 
S210	 0.640433	 0.635779	 1.000000 
S211	 0.640433	 0.635779	 0.000000 
S212	 0.547486	 0.610874	 1.000000 
S213	 0.547486	 0.610874	 0.000000 
Mo214	 0.440161	 0.639632	 0.500000 
Mo215	 0.533107	 0.664537	 0.500000 
S216	 0.479445	 0.678915	 1.000000 
S217	 0.479445	 0.678915	 0.000000 
S218	 0.386499	 0.654011	 1.000000 
S219	 0.386499	 0.654011	 0.000000 
Mo220	 0.279174	 0.682768	 0.500000 
Mo221	 0.372120	 0.707673	 0.500000 
S222	 0.318457	 0.722052	 1.000000 
S223	 0.318457	 0.722052	 0.000000 
S224	 0.225511	 0.697147	 1.000000 
S225	 0.225511	 0.697147	 0.000000 
Mo226	 0.118186	 0.725905	 0.500000 
Mo227	 0.211132	 0.750810	 0.500000 
S228	 0.157470	 0.765188	 1.000000 
S229	 0.157470	 0.765188	 0.000000 
S230	 0.064523	 0.740284	 1.000000 
S231	 0.064523	 0.740284	 0.000000 
Mo232	 0.923124	 0.510222	 0.500000 
S233	 0.962408	 0.549506	 1.000000 
S234	 0.962408	 0.549506	 0.000000 
S235	 0.894366	 0.617547	 1.000000 
S236	 0.894366	 0.617547	 0.000000 
Mo237	 0.787041	 0.646305	 0.500000 
Mo238	 0.879988	 0.671210	 0.500000 
S239	 0.826325	 0.685589	 1.000000 
S240	 0.826325	 0.685589	 0.000000 
S241	 0.733379	 0.660684	 1.000000 
S242	 0.733379	 0.660684	 0.000000 
Mo243	 0.626054	 0.689441	 0.500000 
Mo244	 0.719000	 0.714346	 0.500000 
S245	 0.665337	 0.728725	 1.000000 
S246	 0.665337	 0.728725	 0.000000 
S247	 0.572391	 0.703820	 1.000000 
S248	 0.572391	 0.703820	 0.000000 
Mo249	 0.465066	 0.732578	 0.500000 
Mo250	 0.558012	 0.757483	 0.500000 
S251	 0.504350	 0.771862	 1.000000 
S252	 0.504350	 0.771862	 0.000000 
S253	 0.411404	 0.746957	 1.000000 
S254	 0.411404	 0.746957	 0.000000 
Mo255	 0.304078	 0.775715	 0.500000 
Mo256	 0.397025	 0.800619	 0.500000 
S257	 0.343362	 0.814998	 1.000000 
S258	 0.343362	 0.814998	 0.000000 
S259	 0.250416	 0.790093	 1.000000 
S260	 0.250416	 0.790093	 0.000000 
Mo261	 0.143091	 0.818851	 0.500000 
Mo262	 0.236037	 0.843756	 0.500000 
S263	 0.182374	 0.858135	 1.000000 
S264	 0.182374	 0.858135	 0.000000 
S265	 0.089428	 0.833230	 1.000000 
S266	 0.089428	 0.833230	 0.000000 
Mo267	 0.948029	 0.603168	 0.500000 
S268	 0.987313	 0.642452	 1.000000 
S269	 0.987313	 0.642452	 0.000000 
S270	 0.919271	 0.710494	 1.000000 
S271	 0.919271	 0.710494	 0.000000 
Mo272	 0.811946	 0.739251	 0.500000 
Mo273	 0.904892	 0.764156	 0.500000 
S274	 0.851230	 0.778535	 1.000000 
S275	 0.851230	 0.778535	 0.000000 
S276	 0.758284	 0.753630	 1.000000 
S277	 0.758284	 0.753630	 0.000000 
Mo278	 0.650959	 0.782388	 0.500000 
Mo279	 0.743905	 0.807293	 0.500000 
S280	 0.690242	 0.821671	 1.000000 
S281	 0.690242	 0.821671	 0.000000 
S282	 0.597296	 0.796767	 1.000000 
S283	 0.597296	 0.796767	 0.000000 
Mo284	 0.489971	 0.825524	 0.500000 
Mo285	 0.582917	 0.850429	 0.500000 
S286	 0.529255	 0.864808	 1.000000 
S287	 0.529255	 0.864808	 0.000000 
S288	 0.436308	 0.839903	 1.000000 
S289	 0.436308	 0.839903	 0.000000 
Mo290	 0.328983	 0.868661	 0.500000 
Mo291	 0.421930	 0.893566	 0.500000 
S292	 0.368267	 0.907944	 1.000000 
S293	 0.368267	 0.907944	 0.000000 
S294	 0.275321	 0.883040	 1.000000 
S295	 0.275321	 0.883040	 0.000000 
Mo296	 0.167996	 0.911797	 0.500000 
Mo297	 0.260942	 0.936702	 0.500000 
S298	 0.207279	 0.951081	 1.000000 
S299	 0.207279	 0.951081	 0.000000 
S300	 0.114333	 0.926176	 1.000000 
S301	 0.114333	 0.926176	 0.000000 
Mo302	 0.972934	 0.696115	 0.500000 
S303	 0.944176	 0.803440	 1.000000 
S304	 0.944176	 0.803440	 0.000000 
Mo305	 0.836851	 0.832197	 0.500000 
Mo306	 0.929797	 0.857102	 0.500000 
S307	 0.876135	 0.871481	 1.000000 
S308	 0.876135	 0.871481	 0.000000 
S309	 0.783189	 0.846576	 1.000000 
S310	 0.783189	 0.846576	 0.000000 
Mo311	 0.675863	 0.875334	 0.500000 
Mo312	 0.768810	 0.900239	 0.500000 
S313	 0.715147	 0.914618	 1.000000 
S314	 0.715147	 0.914618	 0.000000 
S315	 0.622201	 0.889713	 1.000000 
S316	 0.622201	 0.889713	 0.000000 
Mo317	 0.514876	 0.918471	 0.500000 
Mo318	 0.607822	 0.943375	 0.500000 
S319	 0.554160	 0.957754	 1.000000 
S320	 0.554160	 0.957754	 0.000000 
S321	 0.461213	 0.932849	 1.000000 
S322	 0.461213	 0.932849	 0.000000 
Mo323	 0.353888	 0.961607	 0.500000 
Mo324	 0.446834	 0.986512	 0.500000 
S325	 0.300226	 0.975986	 1.000000 
S326	 0.300226	 0.975986	 0.000000 
Mo327	 0.997839	 0.789061	 0.500000 
#                 ---end-of-data-block---
