data_Single Layer of MoS2nx 10 ny 6 nz 1
_cell_length_a               32.423991
_cell_length_b               32.423991
_cell_length_c               3.080000
_cell_angle_alpha          90.000000
_cell_angle_beta           90.000000
_cell_angle_gamma          90.000000
_symmetry_cell_setting          Triclinic
_symmetry_space_group_name_H-M 'P 1' 
loop_
_atom_site_label
_atom_site_fract_x
_atom_site_fract_y
_atom_site_fract_z
Mo1	 0.670789	 0.021068	 0.500000 
S2	 0.617126	 0.035447	 1.000000 
S3	 0.617126	 0.035447	 0.000000 
S4	 0.524180	 0.010542	 1.000000 
S5	 0.524180	 0.010542	 0.000000 
Mo6	 0.416855	 0.039300	 0.500000 
Mo7	 0.509801	 0.064205	 0.500000 
S8	 0.456139	 0.078583	 1.000000 
S9	 0.456139	 0.078583	 0.000000 
S10	 0.363192	 0.053679	 1.000000 
S11	 0.363192	 0.053679	 0.000000 
Mo12	 0.255867	 0.082436	 0.500000 
Mo13	 0.348814	 0.107341	 0.500000 
S14	 0.295151	 0.121720	 1.000000 
S15	 0.295151	 0.121720	 0.000000 
S16	 0.202205	 0.096815	 1.000000 
S17	 0.202205	 0.096815	 0.000000 
Mo18	 0.094880	 0.125573	 0.500000 
Mo19	 0.187826	 0.150478	 0.500000 
S20	 0.134163	 0.164856	 1.000000 
S21	 0.134163	 0.164856	 0.000000 
S22	 0.041217	 0.139952	 1.000000 
S23	 0.041217	 0.139952	 0.000000 
Mo24	 0.026838	 0.193614	 0.500000 
S25	 0.871060	 0.017215	 1.000000 
S26	 0.871060	 0.017215	 0.000000 
Mo27	 0.763735	 0.045973	 0.500000 
Mo28	 0.856681	 0.070878	 0.500000 
S29	 0.803019	 0.085257	 1.000000 
S30	 0.803019	 0.085257	 0.000000 
S31	 0.710073	 0.060352	 1.000000 
S32	 0.710073	 0.060352	 0.000000 
Mo33	 0.602747	 0.089109	 0.500000 
Mo34	 0.695694	 0.114014	 0.500000 
S35	 0.642031	 0.128393	 1.000000 
S36	 0.642031	 0.128393	 0.000000 
S37	 0.549085	 0.103488	 1.000000 
S38	 0.549085	 0.103488	 0.000000 
Mo39	 0.441760	 0.132246	 0.500000 
Mo40	 0.534706	 0.157151	 0.500000 
S41	 0.481044	 0.171530	 1.000000 
S42	 0.481044	 0.171530	 0.000000 
S43	 0.388097	 0.146625	 1.000000 
S44	 0.388097	 0.146625	 0.000000 
Mo45	 0.280772	 0.175382	 0.500000 
Mo46	 0.373718	 0.200287	 0.500000 
S47	 0.320056	 0.214666	 1.000000 
S48	 0.320056	 0.214666	 0.000000 
S49	 0.227110	 0.189761	 1.000000 
S50	 0.227110	 0.189761	 0.000000 
Mo51	 0.119785	 0.218519	 0.500000 
Mo52	 0.212731	 0.243424	 0.500000 
S53	 0.159068	 0.257803	 1.000000 
S54	 0.159068	 0.257803	 0.000000 
S55	 0.066122	 0.232898	 1.000000 
S56	 0.066122	 0.232898	 0.000000 
Mo57	 0.051743	 0.286560	 0.500000 
S58	 0.895965	 0.110162	 1.000000 
S59	 0.895965	 0.110162	 0.000000 
Mo60	 0.788640	 0.138919	 0.500000 
Mo61	 0.881586	 0.163824	 0.500000 
S62	 0.827924	 0.178203	 1.000000 
S63	 0.827924	 0.178203	 0.000000 
S64	 0.734977	 0.153298	 1.000000 
S65	 0.734977	 0.153298	 0.000000 
Mo66	 0.627652	 0.182056	 0.500000 
Mo67	 0.720599	 0.206961	 0.500000 
S68	 0.666936	 0.221339	 1.000000 
S69	 0.666936	 0.221339	 0.000000 
S70	 0.573990	 0.196435	 1.000000 
S71	 0.573990	 0.196435	 0.000000 
Mo72	 0.466665	 0.225192	 0.500000 
Mo73	 0.559611	 0.250097	 0.500000 
S74	 0.505948	 0.264476	 1.000000 
S75	 0.505948	 0.264476	 0.000000 
S76	 0.413002	 0.239571	 1.000000 
S77	 0.413002	 0.239571	 0.000000 
Mo78	 0.305677	 0.268329	 0.500000 
Mo79	 0.398623	 0.293234	 0.500000 
S80	 0.344961	 0.307612	 1.000000 
S81	 0.344961	 0.307612	 0.000000 
S82	 0.252015	 0.282708	 1.000000 
S83	 0.252015	 0.282708	 0.000000 
Mo84	 0.144689	 0.311465	 0.500000 
Mo85	 0.237636	 0.336370	 0.500000 
S86	 0.183973	 0.350749	 1.000000 
S87	 0.183973	 0.350749	 0.000000 
S88	 0.091027	 0.325844	 1.000000 
S89	 0.091027	 0.325844	 0.000000 
Mo90	 0.076648	 0.379507	 0.500000 
S91	 0.022986	 0.393885	 1.000000 
S92	 0.022986	 0.393885	 0.000000 
S93	 0.920870	 0.203108	 1.000000 
S94	 0.920870	 0.203108	 0.000000 
Mo95	 0.813545	 0.231865	 0.500000 
Mo96	 0.906491	 0.256770	 0.500000 
S97	 0.852829	 0.271149	 1.000000 
S98	 0.852829	 0.271149	 0.000000 
S99	 0.759882	 0.246244	 1.000000 
S100	 0.759882	 0.246244	 0.000000 
Mo101	 0.652557	 0.275002	 0.500000 
Mo102	 0.745503	 0.299907	 0.500000 
S103	 0.691841	 0.314286	 1.000000 
S104	 0.691841	 0.314286	 0.000000 
S105	 0.598895	 0.289381	 1.000000 
S106	 0.598895	 0.289381	 0.000000 
Mo107	 0.491570	 0.318138	 0.500000 
Mo108	 0.584516	 0.343043	 0.500000 
S109	 0.530853	 0.357422	 1.000000 
S110	 0.530853	 0.357422	 0.000000 
S111	 0.437907	 0.332517	 1.000000 
S112	 0.437907	 0.332517	 0.000000 
Mo113	 0.330582	 0.361275	 0.500000 
Mo114	 0.423528	 0.386180	 0.500000 
S115	 0.369866	 0.400559	 1.000000 
S116	 0.369866	 0.400559	 0.000000 
S117	 0.276919	 0.375654	 1.000000 
S118	 0.276919	 0.375654	 0.000000 
Mo119	 0.169594	 0.404411	 0.500000 
Mo120	 0.262541	 0.429316	 0.500000 
S121	 0.208878	 0.443695	 1.000000 
S122	 0.208878	 0.443695	 0.000000 
S123	 0.115932	 0.418790	 1.000000 
S124	 0.115932	 0.418790	 0.000000 
Mo125	 0.008607	 0.447548	 0.500000 
Mo126	 0.101553	 0.472453	 0.500000 
S127	 0.047890	 0.486832	 1.000000 
S128	 0.047890	 0.486832	 0.000000 
S129	 0.945775	 0.296054	 1.000000 
S130	 0.945775	 0.296054	 0.000000 
Mo131	 0.838450	 0.324812	 0.500000 
Mo132	 0.931396	 0.349717	 0.500000 
S133	 0.877733	 0.364095	 1.000000 
S134	 0.877733	 0.364095	 0.000000 
S135	 0.784787	 0.339191	 1.000000 
S136	 0.784787	 0.339191	 0.000000 
Mo137	 0.677462	 0.367948	 0.500000 
Mo138	 0.770408	 0.392853	 0.500000 
S139	 0.716746	 0.407232	 1.000000 
S140	 0.716746	 0.407232	 0.000000 
S141	 0.623800	 0.382327	 1.000000 
S142	 0.623800	 0.382327	 0.000000 
Mo143	 0.516474	 0.411085	 0.500000 
Mo144	 0.609421	 0.435990	 0.500000 
S145	 0.555758	 0.450368	 1.000000 
S146	 0.555758	 0.450368	 0.000000 
S147	 0.462812	 0.425464	 1.000000 
S148	 0.462812	 0.425464	 0.000000 
Mo149	 0.355487	 0.454221	 0.500000 
Mo150	 0.448433	 0.479126	 0.500000 
S151	 0.394771	 0.493505	 1.000000 
S152	 0.394771	 0.493505	 0.000000 
S153	 0.301824	 0.468600	 1.000000 
S154	 0.301824	 0.468600	 0.000000 
Mo155	 0.194499	 0.497358	 0.500000 
Mo156	 0.287445	 0.522263	 0.500000 
S157	 0.233783	 0.536641	 1.000000 
S158	 0.233783	 0.536641	 0.000000 
S159	 0.140837	 0.511737	 1.000000 
S160	 0.140837	 0.511737	 0.000000 
Mo161	 0.033512	 0.540494	 0.500000 
Mo162	 0.126458	 0.565399	 0.500000 
S163	 0.072795	 0.579778	 1.000000 
S164	 0.072795	 0.579778	 0.000000 
S165	 0.970680	 0.389000	 1.000000 
S166	 0.970680	 0.389000	 0.000000 
Mo167	 0.863355	 0.417758	 0.500000 
Mo168	 0.956301	 0.442663	 0.500000 
S169	 0.902638	 0.457042	 1.000000 
S170	 0.902638	 0.457042	 0.000000 
S171	 0.809692	 0.432137	 1.000000 
S172	 0.809692	 0.432137	 0.000000 
Mo173	 0.702367	 0.460894	 0.500000 
Mo174	 0.795313	 0.485799	 0.500000 
S175	 0.741651	 0.500178	 1.000000 
S176	 0.741651	 0.500178	 0.000000 
S177	 0.648704	 0.475273	 1.000000 
S178	 0.648704	 0.475273	 0.000000 
Mo179	 0.541379	 0.504031	 0.500000 
Mo180	 0.634326	 0.528936	 0.500000 
S181	 0.580663	 0.543315	 1.000000 
S182	 0.580663	 0.543315	 0.000000 
S183	 0.487717	 0.518410	 1.000000 
S184	 0.487717	 0.518410	 0.000000 
Mo185	 0.380392	 0.547167	 0.500000 
Mo186	 0.473338	 0.572072	 0.500000 
S187	 0.419675	 0.586451	 1.000000 
S188	 0.419675	 0.586451	 0.000000 
S189	 0.326729	 0.561546	 1.000000 
S190	 0.326729	 0.561546	 0.000000 
Mo191	 0.219404	 0.590304	 0.500000 
Mo192	 0.312350	 0.615209	 0.500000 
S193	 0.258688	 0.629588	 1.000000 
S194	 0.258688	 0.629588	 0.000000 
S195	 0.165742	 0.604683	 1.000000 
S196	 0.165742	 0.604683	 0.000000 
Mo197	 0.058416	 0.633440	 0.500000 
Mo198	 0.151363	 0.658345	 0.500000 
S199	 0.097700	 0.672724	 1.000000 
S200	 0.097700	 0.672724	 0.000000 
S201	 0.995585	 0.481947	 1.000000 
S202	 0.995585	 0.481947	 0.000000 
Mo203	 0.888259	 0.510704	 0.500000 
Mo204	 0.981206	 0.535609	 0.500000 
S205	 0.927543	 0.549988	 1.000000 
S206	 0.927543	 0.549988	 0.000000 
S207	 0.834597	 0.525083	 1.000000 
S208	 0.834597	 0.525083	 0.000000 
Mo209	 0.727272	 0.553841	 0.500000 
Mo210	 0.820218	 0.578746	 0.500000 
S211	 0.766556	 0.593124	 1.000000 
S212	 0.766556	 0.593124	 0.000000 
S213	 0.673609	 0.568220	 1.000000 
S214	 0.673609	 0.568220	 0.000000 
Mo215	 0.566284	 0.596977	 0.500000 
Mo216	 0.659230	 0.621882	 0.500000 
S217	 0.605568	 0.636261	 1.000000 
S218	 0.605568	 0.636261	 0.000000 
S219	 0.512622	 0.611356	 1.000000 
S220	 0.512622	 0.611356	 0.000000 
Mo221	 0.405297	 0.640114	 0.500000 
Mo222	 0.498243	 0.665019	 0.500000 
S223	 0.444580	 0.679397	 1.000000 
S224	 0.444580	 0.679397	 0.000000 
S225	 0.351634	 0.654493	 1.000000 
S226	 0.351634	 0.654493	 0.000000 
Mo227	 0.244309	 0.683250	 0.500000 
Mo228	 0.337255	 0.708155	 0.500000 
S229	 0.283593	 0.722534	 1.000000 
S230	 0.283593	 0.722534	 0.000000 
S231	 0.190646	 0.697629	 1.000000 
S232	 0.190646	 0.697629	 0.000000 
Mo233	 0.083321	 0.726387	 0.500000 
Mo234	 0.176268	 0.751292	 0.500000 
S235	 0.122605	 0.765670	 1.000000 
S236	 0.122605	 0.765670	 0.000000 
Mo237	 0.913164	 0.603650	 0.500000 
S238	 0.952448	 0.642934	 1.000000 
S239	 0.952448	 0.642934	 0.000000 
S240	 0.859502	 0.618029	 1.000000 
S241	 0.859502	 0.618029	 0.000000 
Mo242	 0.752177	 0.646787	 0.500000 
Mo243	 0.845123	 0.671692	 0.500000 
S244	 0.791460	 0.686071	 1.000000 
S245	 0.791460	 0.686071	 0.000000 
S246	 0.698514	 0.661166	 1.000000 
S247	 0.698514	 0.661166	 0.000000 
Mo248	 0.591189	 0.689923	 0.500000 
Mo249	 0.684135	 0.714828	 0.500000 
S250	 0.630473	 0.729207	 1.000000 
S251	 0.630473	 0.729207	 0.000000 
S252	 0.537527	 0.704302	 1.000000 
S253	 0.537527	 0.704302	 0.000000 
Mo254	 0.430201	 0.733060	 0.500000 
Mo255	 0.523148	 0.757965	 0.500000 
S256	 0.469485	 0.772344	 1.000000 
S257	 0.469485	 0.772344	 0.000000 
S258	 0.376539	 0.747439	 1.000000 
S259	 0.376539	 0.747439	 0.000000 
Mo260	 0.269214	 0.776196	 0.500000 
Mo261	 0.362160	 0.801101	 0.500000 
S262	 0.308498	 0.815480	 1.000000 
S263	 0.308498	 0.815480	 0.000000 
S264	 0.215551	 0.790575	 1.000000 
S265	 0.215551	 0.790575	 0.000000 
Mo266	 0.108226	 0.819333	 0.500000 
Mo267	 0.201172	 0.844238	 0.500000 
S268	 0.147510	 0.858617	 1.000000 
S269	 0.147510	 0.858617	 0.000000 
Mo270	 0.938069	 0.696597	 0.500000 
S271	 0.977353	 0.735880	 1.000000 
S272	 0.977353	 0.735880	 0.000000 
S273	 0.884407	 0.710976	 1.000000 
S274	 0.884407	 0.710976	 0.000000 
Mo275	 0.777082	 0.739733	 0.500000 
Mo276	 0.870028	 0.764638	 0.500000 
S277	 0.816365	 0.779017	 1.000000 
S278	 0.816365	 0.779017	 0.000000 
S279	 0.723419	 0.754112	 1.000000 
S280	 0.723419	 0.754112	 0.000000 
Mo281	 0.616094	 0.782870	 0.500000 
Mo282	 0.709040	 0.807775	 0.500000 
S283	 0.655378	 0.822153	 1.000000 
S284	 0.655378	 0.822153	 0.000000 
S285	 0.562431	 0.797249	 1.000000 
S286	 0.562431	 0.797249	 0.000000 
Mo287	 0.455106	 0.826006	 0.500000 
Mo288	 0.548053	 0.850911	 0.500000 
S289	 0.494390	 0.865290	 1.000000 
S290	 0.494390	 0.865290	 0.000000 
S291	 0.401444	 0.840385	 1.000000 
S292	 0.401444	 0.840385	 0.000000 
Mo293	 0.294119	 0.869143	 0.500000 
Mo294	 0.387065	 0.894048	 0.500000 
S295	 0.333402	 0.908426	 1.000000 
S296	 0.333402	 0.908426	 0.000000 
S297	 0.240456	 0.883522	 1.000000 
S298	 0.240456	 0.883522	 0.000000 
Mo299	 0.133131	 0.912279	 0.500000 
Mo300	 0.226077	 0.937184	 0.500000 
S301	 0.172415	 0.951563	 1.000000 
S302	 0.172415	 0.951563	 0.000000 
Mo303	 0.962974	 0.789543	 0.500000 
S304	 0.909312	 0.803922	 1.000000 
S305	 0.909312	 0.803922	 0.000000 
Mo306	 0.801986	 0.832679	 0.500000 
Mo307	 0.894933	 0.857584	 0.500000 
S308	 0.841270	 0.871963	 1.000000 
S309	 0.841270	 0.871963	 0.000000 
S310	 0.748324	 0.847058	 1.000000 
S311	 0.748324	 0.847058	 0.000000 
Mo312	 0.640999	 0.875816	 0.500000 
Mo313	 0.733945	 0.900721	 0.500000 
S314	 0.680283	 0.915100	 1.000000 
S315	 0.680283	 0.915100	 0.000000 
S316	 0.587336	 0.890195	 1.000000 
S317	 0.587336	 0.890195	 0.000000 
Mo318	 0.480011	 0.918953	 0.500000 
Mo319	 0.572957	 0.943857	 0.500000 
S320	 0.519295	 0.958236	 1.000000 
S321	 0.519295	 0.958236	 0.000000 
S322	 0.426349	 0.933331	 1.000000 
S323	 0.426349	 0.933331	 0.000000 
Mo324	 0.319024	 0.962089	 0.500000 
Mo325	 0.411970	 0.986994	 0.500000 
S326	 0.265361	 0.976468	 1.000000 
S327	 0.265361	 0.976468	 0.000000 
#                 ---end-of-data-block---
