data_Single Layer of MoS2nx 10 ny 6 nz 1
_cell_length_a               32.423991
_cell_length_b               32.423991
_cell_length_c               3.080000
_cell_angle_alpha          90.000000
_cell_angle_beta           90.000000
_cell_angle_gamma          90.000000
_symmetry_cell_setting          Triclinic
_symmetry_space_group_name_H-M 'P 1' 
loop_
_atom_site_label
_atom_site_fract_x
_atom_site_fract_y
_atom_site_fract_z
Mo1	 0.580297	 0.001588	 0.500000 
Mo2	 0.673243	 0.026493	 0.500000 
S3	 0.619580	 0.040872	 1.000000 
S4	 0.619580	 0.040872	 0.000000 
S5	 0.526634	 0.015967	 1.000000 
S6	 0.526634	 0.015967	 0.000000 
Mo7	 0.419309	 0.044725	 0.500000 
Mo8	 0.512255	 0.069629	 0.500000 
S9	 0.458593	 0.084008	 1.000000 
S10	 0.458593	 0.084008	 0.000000 
S11	 0.365646	 0.059103	 1.000000 
S12	 0.365646	 0.059103	 0.000000 
Mo13	 0.258321	 0.087861	 0.500000 
Mo14	 0.351267	 0.112766	 0.500000 
S15	 0.297605	 0.127145	 1.000000 
S16	 0.297605	 0.127145	 0.000000 
S17	 0.204659	 0.102240	 1.000000 
S18	 0.204659	 0.102240	 0.000000 
Mo19	 0.097334	 0.130998	 0.500000 
Mo20	 0.190280	 0.155902	 0.500000 
S21	 0.136617	 0.170281	 1.000000 
S22	 0.136617	 0.170281	 0.000000 
S23	 0.043671	 0.145376	 1.000000 
S24	 0.043671	 0.145376	 0.000000 
Mo25	 0.029292	 0.199039	 0.500000 
S26	 0.873514	 0.022640	 1.000000 
S27	 0.873514	 0.022640	 0.000000 
Mo28	 0.766189	 0.051398	 0.500000 
Mo29	 0.859135	 0.076303	 0.500000 
S30	 0.805473	 0.090682	 1.000000 
S31	 0.805473	 0.090682	 0.000000 
S32	 0.712526	 0.065777	 1.000000 
S33	 0.712526	 0.065777	 0.000000 
Mo34	 0.605201	 0.094534	 0.500000 
Mo35	 0.698148	 0.119439	 0.500000 
S36	 0.644485	 0.133818	 1.000000 
S37	 0.644485	 0.133818	 0.000000 
S38	 0.551539	 0.108913	 1.000000 
S39	 0.551539	 0.108913	 0.000000 
Mo40	 0.444214	 0.137671	 0.500000 
Mo41	 0.537160	 0.162576	 0.500000 
S42	 0.483497	 0.176955	 1.000000 
S43	 0.483497	 0.176955	 0.000000 
S44	 0.390551	 0.152050	 1.000000 
S45	 0.390551	 0.152050	 0.000000 
Mo46	 0.283226	 0.180807	 0.500000 
Mo47	 0.376172	 0.205712	 0.500000 
S48	 0.322510	 0.220091	 1.000000 
S49	 0.322510	 0.220091	 0.000000 
S50	 0.229564	 0.195186	 1.000000 
S51	 0.229564	 0.195186	 0.000000 
Mo52	 0.122238	 0.223944	 0.500000 
Mo53	 0.215185	 0.248849	 0.500000 
S54	 0.161522	 0.263228	 1.000000 
S55	 0.161522	 0.263228	 0.000000 
S56	 0.068576	 0.238323	 1.000000 
S57	 0.068576	 0.238323	 0.000000 
Mo58	 0.054197	 0.291985	 0.500000 
S59	 0.000535	 0.306364	 1.000000 
S60	 0.000535	 0.306364	 0.000000 
S61	 0.898419	 0.115586	 1.000000 
S62	 0.898419	 0.115586	 0.000000 
Mo63	 0.791094	 0.144344	 0.500000 
Mo64	 0.884040	 0.169249	 0.500000 
S65	 0.830378	 0.183628	 1.000000 
S66	 0.830378	 0.183628	 0.000000 
S67	 0.737431	 0.158723	 1.000000 
S68	 0.737431	 0.158723	 0.000000 
Mo69	 0.630106	 0.187481	 0.500000 
Mo70	 0.723053	 0.212385	 0.500000 
S71	 0.669390	 0.226764	 1.000000 
S72	 0.669390	 0.226764	 0.000000 
S73	 0.576444	 0.201859	 1.000000 
S74	 0.576444	 0.201859	 0.000000 
Mo75	 0.469119	 0.230617	 0.500000 
Mo76	 0.562065	 0.255522	 0.500000 
S77	 0.508402	 0.269901	 1.000000 
S78	 0.508402	 0.269901	 0.000000 
S79	 0.415456	 0.244996	 1.000000 
S80	 0.415456	 0.244996	 0.000000 
Mo81	 0.308131	 0.273754	 0.500000 
Mo82	 0.401077	 0.298658	 0.500000 
S83	 0.347415	 0.313037	 1.000000 
S84	 0.347415	 0.313037	 0.000000 
S85	 0.254468	 0.288132	 1.000000 
S86	 0.254468	 0.288132	 0.000000 
Mo87	 0.147143	 0.316890	 0.500000 
Mo88	 0.240090	 0.341795	 0.500000 
S89	 0.186427	 0.356174	 1.000000 
S90	 0.186427	 0.356174	 0.000000 
S91	 0.093481	 0.331269	 1.000000 
S92	 0.093481	 0.331269	 0.000000 
Mo93	 0.079102	 0.384931	 0.500000 
S94	 0.025439	 0.399310	 1.000000 
S95	 0.025439	 0.399310	 0.000000 
S96	 0.923324	 0.208533	 1.000000 
S97	 0.923324	 0.208533	 0.000000 
Mo98	 0.815999	 0.237290	 0.500000 
Mo99	 0.908945	 0.262195	 0.500000 
S100	 0.855282	 0.276574	 1.000000 
S101	 0.855282	 0.276574	 0.000000 
S102	 0.762336	 0.251669	 1.000000 
S103	 0.762336	 0.251669	 0.000000 
Mo104	 0.655011	 0.280427	 0.500000 
Mo105	 0.747957	 0.305332	 0.500000 
S106	 0.694295	 0.319711	 1.000000 
S107	 0.694295	 0.319711	 0.000000 
S108	 0.601349	 0.294806	 1.000000 
S109	 0.601349	 0.294806	 0.000000 
Mo110	 0.494023	 0.323563	 0.500000 
Mo111	 0.586970	 0.348468	 0.500000 
S112	 0.533307	 0.362847	 1.000000 
S113	 0.533307	 0.362847	 0.000000 
S114	 0.440361	 0.337942	 1.000000 
S115	 0.440361	 0.337942	 0.000000 
Mo116	 0.333036	 0.366700	 0.500000 
Mo117	 0.425982	 0.391605	 0.500000 
S118	 0.372320	 0.405984	 1.000000 
S119	 0.372320	 0.405984	 0.000000 
S120	 0.279373	 0.381079	 1.000000 
S121	 0.279373	 0.381079	 0.000000 
Mo122	 0.172048	 0.409836	 0.500000 
Mo123	 0.264994	 0.434741	 0.500000 
S124	 0.211332	 0.449120	 1.000000 
S125	 0.211332	 0.449120	 0.000000 
S126	 0.118386	 0.424215	 1.000000 
S127	 0.118386	 0.424215	 0.000000 
Mo128	 0.011061	 0.452973	 0.500000 
Mo129	 0.104007	 0.477878	 0.500000 
S130	 0.050344	 0.492257	 1.000000 
S131	 0.050344	 0.492257	 0.000000 
S132	 0.948229	 0.301479	 1.000000 
S133	 0.948229	 0.301479	 0.000000 
Mo134	 0.840904	 0.330237	 0.500000 
Mo135	 0.933850	 0.355141	 0.500000 
S136	 0.880187	 0.369520	 1.000000 
S137	 0.880187	 0.369520	 0.000000 
S138	 0.787241	 0.344615	 1.000000 
S139	 0.787241	 0.344615	 0.000000 
Mo140	 0.679916	 0.373373	 0.500000 
Mo141	 0.772862	 0.398278	 0.500000 
S142	 0.719200	 0.412657	 1.000000 
S143	 0.719200	 0.412657	 0.000000 
S144	 0.626253	 0.387752	 1.000000 
S145	 0.626253	 0.387752	 0.000000 
Mo146	 0.518928	 0.416510	 0.500000 
Mo147	 0.611875	 0.441414	 0.500000 
S148	 0.558212	 0.455793	 1.000000 
S149	 0.558212	 0.455793	 0.000000 
S150	 0.465266	 0.430888	 1.000000 
S151	 0.465266	 0.430888	 0.000000 
Mo152	 0.357941	 0.459646	 0.500000 
Mo153	 0.450887	 0.484551	 0.500000 
S154	 0.397224	 0.498930	 1.000000 
S155	 0.397224	 0.498930	 0.000000 
S156	 0.304278	 0.474025	 1.000000 
S157	 0.304278	 0.474025	 0.000000 
Mo158	 0.196953	 0.502783	 0.500000 
Mo159	 0.289899	 0.527687	 0.500000 
S160	 0.236237	 0.542066	 1.000000 
S161	 0.236237	 0.542066	 0.000000 
S162	 0.143291	 0.517161	 1.000000 
S163	 0.143291	 0.517161	 0.000000 
Mo164	 0.035965	 0.545919	 0.500000 
Mo165	 0.128912	 0.570824	 0.500000 
S166	 0.075249	 0.585203	 1.000000 
S167	 0.075249	 0.585203	 0.000000 
S168	 0.973134	 0.394425	 1.000000 
S169	 0.973134	 0.394425	 0.000000 
Mo170	 0.865809	 0.423183	 0.500000 
Mo171	 0.958755	 0.448088	 0.500000 
S172	 0.905092	 0.462467	 1.000000 
S173	 0.905092	 0.462467	 0.000000 
S174	 0.812146	 0.437562	 1.000000 
S175	 0.812146	 0.437562	 0.000000 
Mo176	 0.704821	 0.466319	 0.500000 
Mo177	 0.797767	 0.491224	 0.500000 
S178	 0.744105	 0.505603	 1.000000 
S179	 0.744105	 0.505603	 0.000000 
S180	 0.651158	 0.480698	 1.000000 
S181	 0.651158	 0.480698	 0.000000 
Mo182	 0.543833	 0.509456	 0.500000 
Mo183	 0.636780	 0.534361	 0.500000 
S184	 0.583117	 0.548740	 1.000000 
S185	 0.583117	 0.548740	 0.000000 
S186	 0.490171	 0.523835	 1.000000 
S187	 0.490171	 0.523835	 0.000000 
Mo188	 0.382846	 0.552592	 0.500000 
Mo189	 0.475792	 0.577497	 0.500000 
S190	 0.422129	 0.591876	 1.000000 
S191	 0.422129	 0.591876	 0.000000 
S192	 0.329183	 0.566971	 1.000000 
S193	 0.329183	 0.566971	 0.000000 
Mo194	 0.221858	 0.595729	 0.500000 
Mo195	 0.314804	 0.620634	 0.500000 
S196	 0.261142	 0.635013	 1.000000 
S197	 0.261142	 0.635013	 0.000000 
S198	 0.168195	 0.610108	 1.000000 
S199	 0.168195	 0.610108	 0.000000 
Mo200	 0.060870	 0.638865	 0.500000 
Mo201	 0.153817	 0.663770	 0.500000 
S202	 0.100154	 0.678149	 1.000000 
S203	 0.100154	 0.678149	 0.000000 
S204	 0.998038	 0.487371	 1.000000 
S205	 0.998038	 0.487371	 0.000000 
Mo206	 0.890713	 0.516129	 0.500000 
Mo207	 0.983660	 0.541034	 0.500000 
S208	 0.929997	 0.555413	 1.000000 
S209	 0.929997	 0.555413	 0.000000 
S210	 0.837051	 0.530508	 1.000000 
S211	 0.837051	 0.530508	 0.000000 
Mo212	 0.729726	 0.559266	 0.500000 
Mo213	 0.822672	 0.584170	 0.500000 
S214	 0.769009	 0.598549	 1.000000 
S215	 0.769009	 0.598549	 0.000000 
S216	 0.676063	 0.573644	 1.000000 
S217	 0.676063	 0.573644	 0.000000 
Mo218	 0.568738	 0.602402	 0.500000 
Mo219	 0.661684	 0.627307	 0.500000 
S220	 0.608022	 0.641686	 1.000000 
S221	 0.608022	 0.641686	 0.000000 
S222	 0.515076	 0.616781	 1.000000 
S223	 0.515076	 0.616781	 0.000000 
Mo224	 0.407750	 0.645539	 0.500000 
Mo225	 0.500697	 0.670443	 0.500000 
S226	 0.447034	 0.684822	 1.000000 
S227	 0.447034	 0.684822	 0.000000 
S228	 0.354088	 0.659917	 1.000000 
S229	 0.354088	 0.659917	 0.000000 
Mo230	 0.246763	 0.688675	 0.500000 
Mo231	 0.339709	 0.713580	 0.500000 
S232	 0.286047	 0.727959	 1.000000 
S233	 0.286047	 0.727959	 0.000000 
S234	 0.193100	 0.703054	 1.000000 
S235	 0.193100	 0.703054	 0.000000 
Mo236	 0.085775	 0.731812	 0.500000 
Mo237	 0.178721	 0.756717	 0.500000 
S238	 0.125059	 0.771095	 1.000000 
S239	 0.125059	 0.771095	 0.000000 
Mo240	 0.915618	 0.609075	 0.500000 
S241	 0.954902	 0.648359	 1.000000 
S242	 0.954902	 0.648359	 0.000000 
S243	 0.861956	 0.623454	 1.000000 
S244	 0.861956	 0.623454	 0.000000 
Mo245	 0.754631	 0.652212	 0.500000 
Mo246	 0.847577	 0.677117	 0.500000 
S247	 0.793914	 0.691496	 1.000000 
S248	 0.793914	 0.691496	 0.000000 
S249	 0.700968	 0.666591	 1.000000 
S250	 0.700968	 0.666591	 0.000000 
Mo251	 0.593643	 0.695348	 0.500000 
Mo252	 0.686589	 0.720253	 0.500000 
S253	 0.632927	 0.734632	 1.000000 
S254	 0.632927	 0.734632	 0.000000 
S255	 0.539980	 0.709727	 1.000000 
S256	 0.539980	 0.709727	 0.000000 
Mo257	 0.432655	 0.738485	 0.500000 
Mo258	 0.525602	 0.763390	 0.500000 
S259	 0.471939	 0.777769	 1.000000 
S260	 0.471939	 0.777769	 0.000000 
S261	 0.378993	 0.752864	 1.000000 
S262	 0.378993	 0.752864	 0.000000 
Mo263	 0.271668	 0.781621	 0.500000 
Mo264	 0.364614	 0.806526	 0.500000 
S265	 0.310951	 0.820905	 1.000000 
S266	 0.310951	 0.820905	 0.000000 
S267	 0.218005	 0.796000	 1.000000 
S268	 0.218005	 0.796000	 0.000000 
Mo269	 0.110680	 0.824758	 0.500000 
Mo270	 0.203626	 0.849663	 0.500000 
S271	 0.149964	 0.864042	 1.000000 
S272	 0.149964	 0.864042	 0.000000 
Mo273	 0.940523	 0.702022	 0.500000 
S274	 0.979807	 0.741305	 1.000000 
S275	 0.979807	 0.741305	 0.000000 
S276	 0.886861	 0.716400	 1.000000 
S277	 0.886861	 0.716400	 0.000000 
Mo278	 0.779536	 0.745158	 0.500000 
Mo279	 0.872482	 0.770063	 0.500000 
S280	 0.818819	 0.784442	 1.000000 
S281	 0.818819	 0.784442	 0.000000 
S282	 0.725873	 0.759537	 1.000000 
S283	 0.725873	 0.759537	 0.000000 
Mo284	 0.618548	 0.788295	 0.500000 
Mo285	 0.711494	 0.813200	 0.500000 
S286	 0.657832	 0.827578	 1.000000 
S287	 0.657832	 0.827578	 0.000000 
S288	 0.564885	 0.802673	 1.000000 
S289	 0.564885	 0.802673	 0.000000 
Mo290	 0.457560	 0.831431	 0.500000 
Mo291	 0.550506	 0.856336	 0.500000 
S292	 0.496844	 0.870715	 1.000000 
S293	 0.496844	 0.870715	 0.000000 
S294	 0.403898	 0.845810	 1.000000 
S295	 0.403898	 0.845810	 0.000000 
Mo296	 0.296573	 0.874568	 0.500000 
Mo297	 0.389519	 0.899473	 0.500000 
S298	 0.335856	 0.913851	 1.000000 
S299	 0.335856	 0.913851	 0.000000 
S300	 0.242910	 0.888946	 1.000000 
S301	 0.242910	 0.888946	 0.000000 
Mo302	 0.135585	 0.917704	 0.500000 
Mo303	 0.228531	 0.942609	 0.500000 
S304	 0.174869	 0.956988	 1.000000 
S305	 0.174869	 0.956988	 0.000000 
Mo306	 0.965428	 0.794968	 0.500000 
S307	 0.911765	 0.809347	 1.000000 
S308	 0.911765	 0.809347	 0.000000 
Mo309	 0.804440	 0.838104	 0.500000 
Mo310	 0.897387	 0.863009	 0.500000 
S311	 0.843724	 0.877388	 1.000000 
S312	 0.843724	 0.877388	 0.000000 
S313	 0.750778	 0.852483	 1.000000 
S314	 0.750778	 0.852483	 0.000000 
Mo315	 0.643453	 0.881241	 0.500000 
Mo316	 0.736399	 0.906146	 0.500000 
S317	 0.682736	 0.920525	 1.000000 
S318	 0.682736	 0.920525	 0.000000 
S319	 0.589790	 0.895620	 1.000000 
S320	 0.589790	 0.895620	 0.000000 
Mo321	 0.482465	 0.924377	 0.500000 
Mo322	 0.575411	 0.949282	 0.500000 
S323	 0.521749	 0.963661	 1.000000 
S324	 0.521749	 0.963661	 0.000000 
S325	 0.428803	 0.938756	 1.000000 
S326	 0.428803	 0.938756	 0.000000 
Mo327	 0.321477	 0.967514	 0.500000 
Mo328	 0.414424	 0.992419	 0.500000 
S329	 0.267815	 0.981893	 1.000000 
S330	 0.267815	 0.981893	 0.000000 
#                 ---end-of-data-block---
