data_NiO [110] nx 6 ny 2 nz 1
_cell_length_a               30.187800
_cell_length_b               30.187800
_cell_length_c               2.866200
_cell_angle_alpha          90.000000
_cell_angle_beta           90.000000
_cell_angle_gamma          90.000000
_symmetry_cell_setting          Triclinic
_symmetry_space_group_name_H-M 'P 1' 
loop_
_atom_site_label
_atom_site_fract_x
_atom_site_fract_y
_atom_site_fract_z
Mn1	 0.306036	 0.328138	 0.000000 
Mn2	 0.290631	 0.408905	 0.500000 
Mn3	 0.130889	 0.406339	 0.000000 
Mn4	 0.100078	 0.567878	 0.000000 
Mn5	 0.115482	 0.487111	 0.500000 
Mn6	 0.084674	 0.648646	 0.500000 
Mn7	 0.073094	 0.731605	 0.000000 
Mn8	 0.523572	 0.005438	 0.500000 
Mn9	 0.363831	 0.002872	 0.000000 
Mn10	 0.333020	 0.164411	 0.000000 
Mn11	 0.348424	 0.083644	 0.500000 
Mn12	 0.317616	 0.245179	 0.500000 
Mn13	 0.450374	 0.411472	 0.000000 
Mn14	 0.434968	 0.492238	 0.500000 
Mn15	 0.275226	 0.489672	 0.000000 
Mn16	 0.244416	 0.651211	 0.000000 
Mn17	 0.259820	 0.570444	 0.500000 
Mn18	 0.229012	 0.731979	 0.500000 
Mn19	 0.217432	 0.814939	 0.000000 
Mn20	 0.667910	 0.088771	 0.500000 
Mn21	 0.508168	 0.086205	 0.000000 
Mn22	 0.477358	 0.247744	 0.000000 
Mn23	 0.492762	 0.166977	 0.500000 
Mn24	 0.461953	 0.328512	 0.500000 
Mn25	 0.594711	 0.494805	 0.000000 
Mn26	 0.579306	 0.575572	 0.500000 
Mn27	 0.419564	 0.573006	 0.000000 
Mn28	 0.388753	 0.734545	 0.000000 
Mn29	 0.404157	 0.653777	 0.500000 
Mn30	 0.373349	 0.815312	 0.500000 
Mn31	 0.361770	 0.898272	 0.000000 
Mn32	 0.812248	 0.172105	 0.500000 
Mn33	 0.652506	 0.169539	 0.000000 
Mn34	 0.621695	 0.331078	 0.000000 
Mn35	 0.637099	 0.250310	 0.500000 
Mn36	 0.606291	 0.411845	 0.500000 
Mn37	 0.739049	 0.578138	 0.000000 
Mn38	 0.723643	 0.658905	 0.500000 
Mn39	 0.563902	 0.656339	 0.000000 
Mn40	 0.533091	 0.817878	 0.000000 
Mn41	 0.548495	 0.737111	 0.500000 
Mn42	 0.517687	 0.898646	 0.500000 
Mn43	 0.506107	 0.981605	 0.000000 
Mn44	 0.956585	 0.255438	 0.500000 
Mn45	 0.796843	 0.252872	 0.000000 
Mn46	 0.766033	 0.414411	 0.000000 
Mn47	 0.781437	 0.333644	 0.500000 
Mn48	 0.750628	 0.495179	 0.500000 
Mn49	 0.883387	 0.661472	 0.000000 
Mn50	 0.867981	 0.742238	 0.500000 
Mn51	 0.708239	 0.739672	 0.000000 
Mn52	 0.677428	 0.901211	 0.000000 
Mn53	 0.692833	 0.820444	 0.500000 
Mn54	 0.662024	 0.981979	 0.500000 
Mn55	 0.941181	 0.336205	 0.000000 
Mn56	 0.910370	 0.497744	 0.000000 
Mn57	 0.925774	 0.416977	 0.500000 
Mn58	 0.894966	 0.578512	 0.500000 
Mn59	 0.161699	 0.244805	 0.000000 
Mn60	 0.146293	 0.325572	 0.500000 
Mn61	 0.852577	 0.823006	 0.000000 
Mn62	 0.837170	 0.903777	 0.500000 
Mn63	 0.188682	 0.081078	 0.000000 
Mn64	 0.173278	 0.161845	 0.500000 
#                 ---end-of-data-block---
