data_Pt structure along [001] nx 8 ny 8 nz 1
_cell_length_a               31.360000
_cell_length_b               31.360000
_cell_length_c               3.920000
_cell_angle_alpha          90.000000
_cell_angle_beta           90.000000
_cell_angle_gamma          90.000000
_symmetry_cell_setting          Triclinic
_symmetry_space_group_name_H-M 'P 1' 
loop_
_atom_site_label
_atom_site_fract_x
_atom_site_fract_y
_atom_site_fract_z
Pt1	 0.298101	 0.043808	 0.000000 
Pt2	 0.237731	 0.027632	 0.500000 
Pt3	 0.221555	 0.088002	 0.000000 
Pt4	 0.265749	 0.164549	 0.000000 
Pt5	 0.281925	 0.104179	 0.500000 
Pt6	 0.205379	 0.148373	 0.500000 
Pt7	 0.189203	 0.208743	 0.000000 
Pt8	 0.233397	 0.285290	 0.000000 
Pt9	 0.249573	 0.224919	 0.500000 
Pt10	 0.173026	 0.269113	 0.500000 
Pt11	 0.156850	 0.329484	 0.000000 
Pt12	 0.201044	 0.406030	 0.000000 
Pt13	 0.217220	 0.345660	 0.500000 
Pt14	 0.140674	 0.389854	 0.500000 
Pt15	 0.124498	 0.450225	 0.000000 
Pt16	 0.168692	 0.526771	 0.000000 
Pt17	 0.184868	 0.466401	 0.500000 
Pt18	 0.108322	 0.510595	 0.500000 
Pt19	 0.092145	 0.570965	 0.000000 
Pt20	 0.136340	 0.647512	 0.000000 
Pt21	 0.152516	 0.587141	 0.500000 
Pt22	 0.075969	 0.631336	 0.500000 
Pt23	 0.059793	 0.691706	 0.000000 
Pt24	 0.103987	 0.768253	 0.000000 
Pt25	 0.120163	 0.707882	 0.500000 
Pt26	 0.043617	 0.752076	 0.500000 
Pt27	 0.027441	 0.812447	 0.000000 
Pt28	 0.071635	 0.888993	 0.000000 
Pt29	 0.087811	 0.828623	 0.500000 
Pt30	 0.011264	 0.872817	 0.500000 
Pt31	 0.418842	 0.076161	 0.000000 
Pt32	 0.435018	 0.015790	 0.500000 
Pt33	 0.358472	 0.059984	 0.500000 
Pt34	 0.342296	 0.120355	 0.000000 
Pt35	 0.386490	 0.196901	 0.000000 
Pt36	 0.402666	 0.136531	 0.500000 
Pt37	 0.326119	 0.180725	 0.500000 
Pt38	 0.309943	 0.241095	 0.000000 
Pt39	 0.354137	 0.317642	 0.000000 
Pt40	 0.370314	 0.257272	 0.500000 
Pt41	 0.293767	 0.301466	 0.500000 
Pt42	 0.277591	 0.361836	 0.000000 
Pt43	 0.321785	 0.438383	 0.000000 
Pt44	 0.337961	 0.378012	 0.500000 
Pt45	 0.261415	 0.422207	 0.500000 
Pt46	 0.245238	 0.482577	 0.000000 
Pt47	 0.289433	 0.559123	 0.000000 
Pt48	 0.305609	 0.498753	 0.500000 
Pt49	 0.229062	 0.542947	 0.500000 
Pt50	 0.212886	 0.603318	 0.000000 
Pt51	 0.257080	 0.679864	 0.000000 
Pt52	 0.273256	 0.619494	 0.500000 
Pt53	 0.196710	 0.663688	 0.500000 
Pt54	 0.180534	 0.724058	 0.000000 
Pt55	 0.224728	 0.800605	 0.000000 
Pt56	 0.240904	 0.740235	 0.500000 
Pt57	 0.164358	 0.784429	 0.500000 
Pt58	 0.148181	 0.844799	 0.000000 
Pt59	 0.192376	 0.921346	 0.000000 
Pt60	 0.208552	 0.860975	 0.500000 
Pt61	 0.132005	 0.905169	 0.500000 
Pt62	 0.495389	 0.031966	 0.000000 
Pt63	 0.539583	 0.108513	 0.000000 
Pt64	 0.555759	 0.048143	 0.500000 
Pt65	 0.479213	 0.092337	 0.500000 
Pt66	 0.463036	 0.152707	 0.000000 
Pt67	 0.507231	 0.229254	 0.000000 
Pt68	 0.523407	 0.168883	 0.500000 
Pt69	 0.446860	 0.213077	 0.500000 
Pt70	 0.430684	 0.273448	 0.000000 
Pt71	 0.474878	 0.349994	 0.000000 
Pt72	 0.491054	 0.289624	 0.500000 
Pt73	 0.414508	 0.333818	 0.500000 
Pt74	 0.398332	 0.394189	 0.000000 
Pt75	 0.442526	 0.470735	 0.000000 
Pt76	 0.458702	 0.410365	 0.500000 
Pt77	 0.382155	 0.454559	 0.500000 
Pt78	 0.365979	 0.514929	 0.000000 
Pt79	 0.410173	 0.591476	 0.000000 
Pt80	 0.426350	 0.531105	 0.500000 
Pt81	 0.349803	 0.575300	 0.500000 
Pt82	 0.333627	 0.635670	 0.000000 
Pt83	 0.377821	 0.712217	 0.000000 
Pt84	 0.393997	 0.651846	 0.500000 
Pt85	 0.317451	 0.696040	 0.500000 
Pt86	 0.301274	 0.756411	 0.000000 
Pt87	 0.345469	 0.832957	 0.000000 
Pt88	 0.361645	 0.772587	 0.500000 
Pt89	 0.285098	 0.816781	 0.500000 
Pt90	 0.268922	 0.877151	 0.000000 
Pt91	 0.313116	 0.953698	 0.000000 
Pt92	 0.329292	 0.893328	 0.500000 
Pt93	 0.252746	 0.937522	 0.500000 
Pt94	 0.616129	 0.064319	 0.000000 
Pt95	 0.660324	 0.140865	 0.000000 
Pt96	 0.676500	 0.080495	 0.500000 
Pt97	 0.599953	 0.124689	 0.500000 
Pt98	 0.583777	 0.185060	 0.000000 
Pt99	 0.627971	 0.261606	 0.000000 
Pt100	 0.644147	 0.201236	 0.500000 
Pt101	 0.567601	 0.245430	 0.500000 
Pt102	 0.551425	 0.305800	 0.000000 
Pt103	 0.595619	 0.382347	 0.000000 
Pt104	 0.611795	 0.321976	 0.500000 
Pt105	 0.535249	 0.366171	 0.500000 
Pt106	 0.519072	 0.426541	 0.000000 
Pt107	 0.563266	 0.503088	 0.000000 
Pt108	 0.579443	 0.442717	 0.500000 
Pt109	 0.502896	 0.486911	 0.500000 
Pt110	 0.486720	 0.547282	 0.000000 
Pt111	 0.530914	 0.623828	 0.000000 
Pt112	 0.547090	 0.563458	 0.500000 
Pt113	 0.470544	 0.607652	 0.500000 
Pt114	 0.454368	 0.668022	 0.000000 
Pt115	 0.498562	 0.744569	 0.000000 
Pt116	 0.514738	 0.684199	 0.500000 
Pt117	 0.438191	 0.728393	 0.500000 
Pt118	 0.422015	 0.788763	 0.000000 
Pt119	 0.466209	 0.865310	 0.000000 
Pt120	 0.482386	 0.804939	 0.500000 
Pt121	 0.405839	 0.849134	 0.500000 
Pt122	 0.389663	 0.909504	 0.000000 
Pt123	 0.433857	 0.986050	 0.000000 
Pt124	 0.450033	 0.925680	 0.500000 
Pt125	 0.373487	 0.969874	 0.500000 
Pt126	 0.736870	 0.096671	 0.000000 
Pt127	 0.781064	 0.173218	 0.000000 
Pt128	 0.797241	 0.112847	 0.500000 
Pt129	 0.720694	 0.157042	 0.500000 
Pt130	 0.704518	 0.217412	 0.000000 
Pt131	 0.748712	 0.293958	 0.000000 
Pt132	 0.764888	 0.233588	 0.500000 
Pt133	 0.688342	 0.277782	 0.500000 
Pt134	 0.672165	 0.338153	 0.000000 
Pt135	 0.716360	 0.414699	 0.000000 
Pt136	 0.732536	 0.354329	 0.500000 
Pt137	 0.655989	 0.398523	 0.500000 
Pt138	 0.639813	 0.458893	 0.000000 
Pt139	 0.684007	 0.535440	 0.000000 
Pt140	 0.700183	 0.475070	 0.500000 
Pt141	 0.623637	 0.519264	 0.500000 
Pt142	 0.607461	 0.579634	 0.000000 
Pt143	 0.651655	 0.656181	 0.000000 
Pt144	 0.667831	 0.595810	 0.500000 
Pt145	 0.591284	 0.640004	 0.500000 
Pt146	 0.575108	 0.700375	 0.000000 
Pt147	 0.619302	 0.776921	 0.000000 
Pt148	 0.635479	 0.716551	 0.500000 
Pt149	 0.558932	 0.760745	 0.500000 
Pt150	 0.542756	 0.821116	 0.000000 
Pt151	 0.586950	 0.897662	 0.000000 
Pt152	 0.603126	 0.837292	 0.500000 
Pt153	 0.526580	 0.881486	 0.500000 
Pt154	 0.510404	 0.941856	 0.000000 
Pt155	 0.570774	 0.958032	 0.500000 
Pt156	 0.857611	 0.129024	 0.000000 
Pt157	 0.901805	 0.205570	 0.000000 
Pt158	 0.917981	 0.145200	 0.500000 
Pt159	 0.841435	 0.189394	 0.500000 
Pt160	 0.825259	 0.249764	 0.000000 
Pt161	 0.869453	 0.326311	 0.000000 
Pt162	 0.885629	 0.265940	 0.500000 
Pt163	 0.809082	 0.310135	 0.500000 
Pt164	 0.792906	 0.370505	 0.000000 
Pt165	 0.837100	 0.447052	 0.000000 
Pt166	 0.853277	 0.386681	 0.500000 
Pt167	 0.776730	 0.430875	 0.500000 
Pt168	 0.760554	 0.491246	 0.000000 
Pt169	 0.804748	 0.567792	 0.000000 
Pt170	 0.820924	 0.507422	 0.500000 
Pt171	 0.744378	 0.551616	 0.500000 
Pt172	 0.728201	 0.611986	 0.000000 
Pt173	 0.772396	 0.688533	 0.000000 
Pt174	 0.788572	 0.628163	 0.500000 
Pt175	 0.712025	 0.672357	 0.500000 
Pt176	 0.695849	 0.732727	 0.000000 
Pt177	 0.740043	 0.809274	 0.000000 
Pt178	 0.756219	 0.748903	 0.500000 
Pt179	 0.679673	 0.793098	 0.500000 
Pt180	 0.663497	 0.853468	 0.000000 
Pt181	 0.707691	 0.930014	 0.000000 
Pt182	 0.723867	 0.869644	 0.500000 
Pt183	 0.647320	 0.913838	 0.500000 
Pt184	 0.631144	 0.974209	 0.000000 
Pt185	 0.691515	 0.990385	 0.500000 
Pt186	 0.978352	 0.161376	 0.000000 
Pt187	 0.962175	 0.221746	 0.500000 
Pt188	 0.945999	 0.282117	 0.000000 
Pt189	 0.990193	 0.358663	 0.000000 
Pt190	 0.929823	 0.342487	 0.500000 
Pt191	 0.913647	 0.402857	 0.000000 
Pt192	 0.957841	 0.479404	 0.000000 
Pt193	 0.974017	 0.419034	 0.500000 
Pt194	 0.897471	 0.463228	 0.500000 
Pt195	 0.881294	 0.523598	 0.000000 
Pt196	 0.925489	 0.600145	 0.000000 
Pt197	 0.941665	 0.539774	 0.500000 
Pt198	 0.865118	 0.583968	 0.500000 
Pt199	 0.848942	 0.644339	 0.000000 
Pt200	 0.893136	 0.720885	 0.000000 
Pt201	 0.909312	 0.660515	 0.500000 
Pt202	 0.832766	 0.704709	 0.500000 
Pt203	 0.816590	 0.765080	 0.000000 
Pt204	 0.860784	 0.841626	 0.000000 
Pt205	 0.876960	 0.781256	 0.500000 
Pt206	 0.800414	 0.825450	 0.500000 
Pt207	 0.784237	 0.885820	 0.000000 
Pt208	 0.828432	 0.962367	 0.000000 
Pt209	 0.844608	 0.901996	 0.500000 
Pt210	 0.768061	 0.946191	 0.500000 
Pt211	 0.177361	 0.011456	 0.000000 
Pt212	 0.145008	 0.132197	 0.000000 
Pt213	 0.161185	 0.071826	 0.500000 
Pt214	 0.112656	 0.252937	 0.000000 
Pt215	 0.128832	 0.192567	 0.500000 
Pt216	 0.080304	 0.373678	 0.000000 
Pt217	 0.096480	 0.313308	 0.500000 
Pt218	 0.985859	 0.616321	 0.500000 
Pt219	 0.969683	 0.676691	 0.000000 
Pt220	 0.047951	 0.494419	 0.000000 
Pt221	 0.064127	 0.434048	 0.500000 
Pt222	 0.953507	 0.737062	 0.500000 
Pt223	 0.937330	 0.797432	 0.000000 
Pt224	 0.015599	 0.615159	 0.000000 
Pt225	 0.031775	 0.554789	 0.500000 
Pt226	 0.921154	 0.857802	 0.500000 
Pt227	 0.904978	 0.918173	 0.000000 
Pt228	 0.888802	 0.978543	 0.500000 
#                 ---end-of-data-block---
