data_Pt structure along [001] nx 8 ny 8 nz 1
_cell_length_a               31.360000
_cell_length_b               31.360000
_cell_length_c               3.920000
_cell_angle_alpha          90.000000
_cell_angle_beta           90.000000
_cell_angle_gamma          90.000000
_symmetry_cell_setting          Triclinic
_symmetry_space_group_name_H-M 'P 1' 
loop_
_atom_site_label
_atom_site_fract_x
_atom_site_fract_y
_atom_site_fract_z
Pt1	 0.410385	 0.021540	 0.000000 
Pt2	 0.321997	 0.021540	 0.000000 
Pt3	 0.321997	 0.109928	 0.000000 
Pt4	 0.366191	 0.065734	 0.500000 
Pt5	 0.277803	 0.065734	 0.500000 
Pt6	 0.233608	 0.109928	 0.000000 
Pt7	 0.233608	 0.198316	 0.000000 
Pt8	 0.277803	 0.154122	 0.500000 
Pt9	 0.189414	 0.154122	 0.500000 
Pt10	 0.145220	 0.198316	 0.000000 
Pt11	 0.145220	 0.286705	 0.000000 
Pt12	 0.189414	 0.242511	 0.500000 
Pt13	 0.101026	 0.242511	 0.500000 
Pt14	 0.056832	 0.286705	 0.000000 
Pt15	 0.056832	 0.375093	 0.000000 
Pt16	 0.101026	 0.330899	 0.500000 
Pt17	 0.012638	 0.330899	 0.500000 
Pt18	 0.012638	 0.419287	 0.500000 
Pt19	 0.587162	 0.021540	 0.000000 
Pt20	 0.498773	 0.021540	 0.000000 
Pt21	 0.498773	 0.109928	 0.000000 
Pt22	 0.542968	 0.065734	 0.500000 
Pt23	 0.454579	 0.065734	 0.500000 
Pt24	 0.410385	 0.109928	 0.000000 
Pt25	 0.410385	 0.198316	 0.000000 
Pt26	 0.454579	 0.154122	 0.500000 
Pt27	 0.366191	 0.154122	 0.500000 
Pt28	 0.321997	 0.198316	 0.000000 
Pt29	 0.321997	 0.286705	 0.000000 
Pt30	 0.366191	 0.242511	 0.500000 
Pt31	 0.277803	 0.242511	 0.500000 
Pt32	 0.233608	 0.286705	 0.000000 
Pt33	 0.233608	 0.375093	 0.000000 
Pt34	 0.277803	 0.330899	 0.500000 
Pt35	 0.189414	 0.330899	 0.500000 
Pt36	 0.145220	 0.375093	 0.000000 
Pt37	 0.145220	 0.463481	 0.000000 
Pt38	 0.189414	 0.419287	 0.500000 
Pt39	 0.101026	 0.419287	 0.500000 
Pt40	 0.056832	 0.463481	 0.000000 
Pt41	 0.056832	 0.551870	 0.000000 
Pt42	 0.101026	 0.507676	 0.500000 
Pt43	 0.012638	 0.507676	 0.500000 
Pt44	 0.012638	 0.596064	 0.500000 
Pt45	 0.675550	 0.021540	 0.000000 
Pt46	 0.675550	 0.109928	 0.000000 
Pt47	 0.719744	 0.065734	 0.500000 
Pt48	 0.631356	 0.065734	 0.500000 
Pt49	 0.587162	 0.109928	 0.000000 
Pt50	 0.587162	 0.198316	 0.000000 
Pt51	 0.631356	 0.154122	 0.500000 
Pt52	 0.542968	 0.154122	 0.500000 
Pt53	 0.498773	 0.198316	 0.000000 
Pt54	 0.498773	 0.286705	 0.000000 
Pt55	 0.542968	 0.242511	 0.500000 
Pt56	 0.454579	 0.242511	 0.500000 
Pt57	 0.410385	 0.286705	 0.000000 
Pt58	 0.410385	 0.375093	 0.000000 
Pt59	 0.454579	 0.330899	 0.500000 
Pt60	 0.366191	 0.330899	 0.500000 
Pt61	 0.321997	 0.375093	 0.000000 
Pt62	 0.321997	 0.463481	 0.000000 
Pt63	 0.366191	 0.419287	 0.500000 
Pt64	 0.277803	 0.419287	 0.500000 
Pt65	 0.233608	 0.463481	 0.000000 
Pt66	 0.233608	 0.551870	 0.000000 
Pt67	 0.277803	 0.507676	 0.500000 
Pt68	 0.189414	 0.507676	 0.500000 
Pt69	 0.145220	 0.551870	 0.000000 
Pt70	 0.145220	 0.640258	 0.000000 
Pt71	 0.189414	 0.596064	 0.500000 
Pt72	 0.101026	 0.596064	 0.500000 
Pt73	 0.056832	 0.640258	 0.000000 
Pt74	 0.056832	 0.728646	 0.000000 
Pt75	 0.101026	 0.684452	 0.500000 
Pt76	 0.012638	 0.684452	 0.500000 
Pt77	 0.763938	 0.109928	 0.000000 
Pt78	 0.763938	 0.198316	 0.000000 
Pt79	 0.808133	 0.154122	 0.500000 
Pt80	 0.719744	 0.154122	 0.500000 
Pt81	 0.675550	 0.198316	 0.000000 
Pt82	 0.675550	 0.286705	 0.000000 
Pt83	 0.719744	 0.242511	 0.500000 
Pt84	 0.631356	 0.242511	 0.500000 
Pt85	 0.587162	 0.286705	 0.000000 
Pt86	 0.587162	 0.375093	 0.000000 
Pt87	 0.631356	 0.330899	 0.500000 
Pt88	 0.542968	 0.330899	 0.500000 
Pt89	 0.498773	 0.375093	 0.000000 
Pt90	 0.498773	 0.463481	 0.000000 
Pt91	 0.542968	 0.419287	 0.500000 
Pt92	 0.454579	 0.419287	 0.500000 
Pt93	 0.410385	 0.463481	 0.000000 
Pt94	 0.410385	 0.551870	 0.000000 
Pt95	 0.454579	 0.507676	 0.500000 
Pt96	 0.366191	 0.507676	 0.500000 
Pt97	 0.321997	 0.551870	 0.000000 
Pt98	 0.321997	 0.640258	 0.000000 
Pt99	 0.366191	 0.596064	 0.500000 
Pt100	 0.277803	 0.596064	 0.500000 
Pt101	 0.233608	 0.640258	 0.000000 
Pt102	 0.233608	 0.728646	 0.000000 
Pt103	 0.277803	 0.684452	 0.500000 
Pt104	 0.189414	 0.684452	 0.500000 
Pt105	 0.145220	 0.728646	 0.000000 
Pt106	 0.145220	 0.817035	 0.000000 
Pt107	 0.189414	 0.772841	 0.500000 
Pt108	 0.101026	 0.772841	 0.500000 
Pt109	 0.852327	 0.198316	 0.000000 
Pt110	 0.852327	 0.286705	 0.000000 
Pt111	 0.896521	 0.242511	 0.500000 
Pt112	 0.808133	 0.242511	 0.500000 
Pt113	 0.763938	 0.286705	 0.000000 
Pt114	 0.763938	 0.375093	 0.000000 
Pt115	 0.808133	 0.330899	 0.500000 
Pt116	 0.719744	 0.330899	 0.500000 
Pt117	 0.675550	 0.375093	 0.000000 
Pt118	 0.675550	 0.463481	 0.000000 
Pt119	 0.719744	 0.419287	 0.500000 
Pt120	 0.631356	 0.419287	 0.500000 
Pt121	 0.587162	 0.463481	 0.000000 
Pt122	 0.587162	 0.551870	 0.000000 
Pt123	 0.631356	 0.507676	 0.500000 
Pt124	 0.542968	 0.507676	 0.500000 
Pt125	 0.498773	 0.551870	 0.000000 
Pt126	 0.498773	 0.640258	 0.000000 
Pt127	 0.542968	 0.596064	 0.500000 
Pt128	 0.454579	 0.596064	 0.500000 
Pt129	 0.410385	 0.640258	 0.000000 
Pt130	 0.410385	 0.728646	 0.000000 
Pt131	 0.454579	 0.684452	 0.500000 
Pt132	 0.366191	 0.684452	 0.500000 
Pt133	 0.321997	 0.728646	 0.000000 
Pt134	 0.321997	 0.817035	 0.000000 
Pt135	 0.366191	 0.772841	 0.500000 
Pt136	 0.277803	 0.772841	 0.500000 
Pt137	 0.233608	 0.817035	 0.000000 
Pt138	 0.233608	 0.905423	 0.000000 
Pt139	 0.277803	 0.861229	 0.500000 
Pt140	 0.189414	 0.861229	 0.500000 
Pt141	 0.940715	 0.286705	 0.000000 
Pt142	 0.940715	 0.375093	 0.000000 
Pt143	 0.984909	 0.330899	 0.500000 
Pt144	 0.896521	 0.330899	 0.500000 
Pt145	 0.852327	 0.375093	 0.000000 
Pt146	 0.852327	 0.463481	 0.000000 
Pt147	 0.896521	 0.419287	 0.500000 
Pt148	 0.808133	 0.419287	 0.500000 
Pt149	 0.763938	 0.463481	 0.000000 
Pt150	 0.763938	 0.551870	 0.000000 
Pt151	 0.808133	 0.507676	 0.500000 
Pt152	 0.719744	 0.507676	 0.500000 
Pt153	 0.675550	 0.551870	 0.000000 
Pt154	 0.675550	 0.640258	 0.000000 
Pt155	 0.719744	 0.596064	 0.500000 
Pt156	 0.631356	 0.596064	 0.500000 
Pt157	 0.587162	 0.640258	 0.000000 
Pt158	 0.587162	 0.728646	 0.000000 
Pt159	 0.631356	 0.684452	 0.500000 
Pt160	 0.542968	 0.684452	 0.500000 
Pt161	 0.498773	 0.728646	 0.000000 
Pt162	 0.498773	 0.817035	 0.000000 
Pt163	 0.542968	 0.772841	 0.500000 
Pt164	 0.454579	 0.772841	 0.500000 
Pt165	 0.410385	 0.817035	 0.000000 
Pt166	 0.410385	 0.905423	 0.000000 
Pt167	 0.454579	 0.861229	 0.500000 
Pt168	 0.366191	 0.861229	 0.500000 
Pt169	 0.321997	 0.905423	 0.000000 
Pt170	 0.321997	 0.993811	 0.000000 
Pt171	 0.366191	 0.949617	 0.500000 
Pt172	 0.277803	 0.949617	 0.500000 
Pt173	 0.984909	 0.419287	 0.500000 
Pt174	 0.940715	 0.463481	 0.000000 
Pt175	 0.940715	 0.551870	 0.000000 
Pt176	 0.984909	 0.507676	 0.500000 
Pt177	 0.896521	 0.507676	 0.500000 
Pt178	 0.852327	 0.551870	 0.000000 
Pt179	 0.852327	 0.640258	 0.000000 
Pt180	 0.896521	 0.596064	 0.500000 
Pt181	 0.808133	 0.596064	 0.500000 
Pt182	 0.763938	 0.640258	 0.000000 
Pt183	 0.763938	 0.728646	 0.000000 
Pt184	 0.808133	 0.684452	 0.500000 
Pt185	 0.719744	 0.684452	 0.500000 
Pt186	 0.675550	 0.728646	 0.000000 
Pt187	 0.675550	 0.817035	 0.000000 
Pt188	 0.719744	 0.772841	 0.500000 
Pt189	 0.631356	 0.772841	 0.500000 
Pt190	 0.587162	 0.817035	 0.000000 
Pt191	 0.587162	 0.905423	 0.000000 
Pt192	 0.631356	 0.861229	 0.500000 
Pt193	 0.542968	 0.861229	 0.500000 
Pt194	 0.498773	 0.905423	 0.000000 
Pt195	 0.498773	 0.993811	 0.000000 
Pt196	 0.542968	 0.949617	 0.500000 
Pt197	 0.454579	 0.949617	 0.500000 
Pt198	 0.410385	 0.993811	 0.000000 
Pt199	 0.984909	 0.596064	 0.500000 
Pt200	 0.940715	 0.640258	 0.000000 
Pt201	 0.940715	 0.728646	 0.000000 
Pt202	 0.984909	 0.684452	 0.500000 
Pt203	 0.896521	 0.684452	 0.500000 
Pt204	 0.852327	 0.728646	 0.000000 
Pt205	 0.852327	 0.817035	 0.000000 
Pt206	 0.896521	 0.772841	 0.500000 
Pt207	 0.808133	 0.772841	 0.500000 
Pt208	 0.763938	 0.817035	 0.000000 
Pt209	 0.763938	 0.905423	 0.000000 
Pt210	 0.808133	 0.861229	 0.500000 
Pt211	 0.719744	 0.861229	 0.500000 
Pt212	 0.675550	 0.905423	 0.000000 
Pt213	 0.675550	 0.993811	 0.000000 
Pt214	 0.719744	 0.949617	 0.500000 
Pt215	 0.631356	 0.949617	 0.500000 
Pt216	 0.587162	 0.993811	 0.000000 
#                 ---end-of-data-block---
