data_Pt structure along [001] nx 8 ny 8 nz 1
_cell_length_a               31.360000
_cell_length_b               31.360000
_cell_length_c               3.920000
_cell_angle_alpha          90.000000
_cell_angle_beta           90.000000
_cell_angle_gamma          90.000000
_symmetry_cell_setting          Triclinic
_symmetry_space_group_name_H-M 'P 1' 
loop_
_atom_site_label
_atom_site_fract_x
_atom_site_fract_y
_atom_site_fract_z
Pt1	 0.806756	 0.062288	 0.000000 
Pt2	 0.867126	 0.046112	 0.500000 
Pt3	 0.790579	 0.001918	 0.500000 
Pt4	 0.730209	 0.018094	 0.000000 
Pt5	 0.686015	 0.094641	 0.000000 
Pt6	 0.746385	 0.078465	 0.500000 
Pt7	 0.669839	 0.034270	 0.500000 
Pt8	 0.609468	 0.050447	 0.000000 
Pt9	 0.565274	 0.126993	 0.000000 
Pt10	 0.625644	 0.110817	 0.500000 
Pt11	 0.549098	 0.066623	 0.500000 
Pt12	 0.488728	 0.082799	 0.000000 
Pt13	 0.444533	 0.159345	 0.000000 
Pt14	 0.504904	 0.143169	 0.500000 
Pt15	 0.428357	 0.098975	 0.500000 
Pt16	 0.367987	 0.115151	 0.000000 
Pt17	 0.323793	 0.191698	 0.000000 
Pt18	 0.384163	 0.175522	 0.500000 
Pt19	 0.307616	 0.131328	 0.500000 
Pt20	 0.247246	 0.147504	 0.000000 
Pt21	 0.203052	 0.224050	 0.000000 
Pt22	 0.263422	 0.207874	 0.500000 
Pt23	 0.186876	 0.163680	 0.500000 
Pt24	 0.126505	 0.179856	 0.000000 
Pt25	 0.082311	 0.256403	 0.000000 
Pt26	 0.142682	 0.240226	 0.500000 
Pt27	 0.066135	 0.196032	 0.500000 
Pt28	 0.005765	 0.212208	 0.000000 
Pt29	 0.021941	 0.272579	 0.500000 
Pt30	 0.883302	 0.106483	 0.000000 
Pt31	 0.839108	 0.183029	 0.000000 
Pt32	 0.899478	 0.166853	 0.500000 
Pt33	 0.822932	 0.122659	 0.500000 
Pt34	 0.762561	 0.138835	 0.000000 
Pt35	 0.718367	 0.215381	 0.000000 
Pt36	 0.778738	 0.199205	 0.500000 
Pt37	 0.702191	 0.155011	 0.500000 
Pt38	 0.641821	 0.171187	 0.000000 
Pt39	 0.597627	 0.247734	 0.000000 
Pt40	 0.657997	 0.231558	 0.500000 
Pt41	 0.581450	 0.187363	 0.500000 
Pt42	 0.521080	 0.203540	 0.000000 
Pt43	 0.476886	 0.280086	 0.000000 
Pt44	 0.537256	 0.263910	 0.500000 
Pt45	 0.460710	 0.219716	 0.500000 
Pt46	 0.400339	 0.235892	 0.000000 
Pt47	 0.356145	 0.312439	 0.000000 
Pt48	 0.416515	 0.296262	 0.500000 
Pt49	 0.339969	 0.252068	 0.500000 
Pt50	 0.279598	 0.268244	 0.000000 
Pt51	 0.235404	 0.344791	 0.000000 
Pt52	 0.295775	 0.328615	 0.500000 
Pt53	 0.219228	 0.284421	 0.500000 
Pt54	 0.158858	 0.300597	 0.000000 
Pt55	 0.114664	 0.377143	 0.000000 
Pt56	 0.175034	 0.360967	 0.500000 
Pt57	 0.098487	 0.316773	 0.500000 
Pt58	 0.038117	 0.332949	 0.000000 
Pt59	 0.054293	 0.393320	 0.500000 
Pt60	 0.915655	 0.227223	 0.000000 
Pt61	 0.871460	 0.303770	 0.000000 
Pt62	 0.931831	 0.287594	 0.500000 
Pt63	 0.855284	 0.243399	 0.500000 
Pt64	 0.794914	 0.259576	 0.000000 
Pt65	 0.750720	 0.336122	 0.000000 
Pt66	 0.811090	 0.319946	 0.500000 
Pt67	 0.734543	 0.275752	 0.500000 
Pt68	 0.674173	 0.291928	 0.000000 
Pt69	 0.629979	 0.368475	 0.000000 
Pt70	 0.690349	 0.352298	 0.500000 
Pt71	 0.613803	 0.308104	 0.500000 
Pt72	 0.553432	 0.324280	 0.000000 
Pt73	 0.509238	 0.400827	 0.000000 
Pt74	 0.569609	 0.384651	 0.500000 
Pt75	 0.493062	 0.340457	 0.500000 
Pt76	 0.432692	 0.356633	 0.000000 
Pt77	 0.388497	 0.433179	 0.000000 
Pt78	 0.448868	 0.417003	 0.500000 
Pt79	 0.372321	 0.372809	 0.500000 
Pt80	 0.311951	 0.388985	 0.000000 
Pt81	 0.267757	 0.465532	 0.000000 
Pt82	 0.328127	 0.449356	 0.500000 
Pt83	 0.251581	 0.405161	 0.500000 
Pt84	 0.191210	 0.421338	 0.000000 
Pt85	 0.147016	 0.497884	 0.000000 
Pt86	 0.207386	 0.481708	 0.500000 
Pt87	 0.130840	 0.437514	 0.500000 
Pt88	 0.070469	 0.453690	 0.000000 
Pt89	 0.026275	 0.530236	 0.000000 
Pt90	 0.086646	 0.514060	 0.500000 
Pt91	 0.010099	 0.469866	 0.500000 
Pt92	 0.948007	 0.347964	 0.000000 
Pt93	 0.903813	 0.424511	 0.000000 
Pt94	 0.964183	 0.408334	 0.500000 
Pt95	 0.887637	 0.364140	 0.500000 
Pt96	 0.827266	 0.380316	 0.000000 
Pt97	 0.783072	 0.456863	 0.000000 
Pt98	 0.843442	 0.440687	 0.500000 
Pt99	 0.766896	 0.396493	 0.500000 
Pt100	 0.706525	 0.412669	 0.000000 
Pt101	 0.662331	 0.489215	 0.000000 
Pt102	 0.722702	 0.473039	 0.500000 
Pt103	 0.646155	 0.428845	 0.500000 
Pt104	 0.585785	 0.445021	 0.000000 
Pt105	 0.541591	 0.521568	 0.000000 
Pt106	 0.601961	 0.505391	 0.500000 
Pt107	 0.525414	 0.461197	 0.500000 
Pt108	 0.465044	 0.477373	 0.000000 
Pt109	 0.420850	 0.553920	 0.000000 
Pt110	 0.481220	 0.537744	 0.500000 
Pt111	 0.404674	 0.493550	 0.500000 
Pt112	 0.344303	 0.509726	 0.000000 
Pt113	 0.300109	 0.586272	 0.000000 
Pt114	 0.360479	 0.570096	 0.500000 
Pt115	 0.283933	 0.525902	 0.500000 
Pt116	 0.223563	 0.542078	 0.000000 
Pt117	 0.179368	 0.618625	 0.000000 
Pt118	 0.239739	 0.602449	 0.500000 
Pt119	 0.163192	 0.558254	 0.500000 
Pt120	 0.102822	 0.574431	 0.000000 
Pt121	 0.058628	 0.650977	 0.000000 
Pt122	 0.118998	 0.634801	 0.500000 
Pt123	 0.042451	 0.590607	 0.500000 
Pt124	 0.980359	 0.468705	 0.000000 
Pt125	 0.936165	 0.545251	 0.000000 
Pt126	 0.996535	 0.529075	 0.500000 
Pt127	 0.919989	 0.484881	 0.500000 
Pt128	 0.859619	 0.501057	 0.000000 
Pt129	 0.815424	 0.577604	 0.000000 
Pt130	 0.875795	 0.561427	 0.500000 
Pt131	 0.799248	 0.517233	 0.500000 
Pt132	 0.738878	 0.533409	 0.000000 
Pt133	 0.694684	 0.609956	 0.000000 
Pt134	 0.755054	 0.593780	 0.500000 
Pt135	 0.678507	 0.549586	 0.500000 
Pt136	 0.618137	 0.565762	 0.000000 
Pt137	 0.573943	 0.642308	 0.000000 
Pt138	 0.634313	 0.626132	 0.500000 
Pt139	 0.557767	 0.581938	 0.500000 
Pt140	 0.497396	 0.598114	 0.000000 
Pt141	 0.453202	 0.674661	 0.000000 
Pt142	 0.513573	 0.658485	 0.500000 
Pt143	 0.437026	 0.614290	 0.500000 
Pt144	 0.376656	 0.630467	 0.000000 
Pt145	 0.332461	 0.707013	 0.000000 
Pt146	 0.392832	 0.690837	 0.500000 
Pt147	 0.316285	 0.646643	 0.500000 
Pt148	 0.255915	 0.662819	 0.000000 
Pt149	 0.211721	 0.739366	 0.000000 
Pt150	 0.272091	 0.723189	 0.500000 
Pt151	 0.195545	 0.678995	 0.500000 
Pt152	 0.135174	 0.695171	 0.000000 
Pt153	 0.090980	 0.771718	 0.000000 
Pt154	 0.151350	 0.755542	 0.500000 
Pt155	 0.074804	 0.711348	 0.500000 
Pt156	 0.968517	 0.665992	 0.000000 
Pt157	 0.952341	 0.605622	 0.500000 
Pt158	 0.891971	 0.621798	 0.000000 
Pt159	 0.847777	 0.698344	 0.000000 
Pt160	 0.908147	 0.682168	 0.500000 
Pt161	 0.831601	 0.637974	 0.500000 
Pt162	 0.771230	 0.654150	 0.000000 
Pt163	 0.727036	 0.730697	 0.000000 
Pt164	 0.787406	 0.714521	 0.500000 
Pt165	 0.710860	 0.670326	 0.500000 
Pt166	 0.650489	 0.686503	 0.000000 
Pt167	 0.606295	 0.763049	 0.000000 
Pt168	 0.666666	 0.746873	 0.500000 
Pt169	 0.590119	 0.702679	 0.500000 
Pt170	 0.529749	 0.718855	 0.000000 
Pt171	 0.485555	 0.795402	 0.000000 
Pt172	 0.545925	 0.779225	 0.500000 
Pt173	 0.469378	 0.735031	 0.500000 
Pt174	 0.409008	 0.751207	 0.000000 
Pt175	 0.364814	 0.827754	 0.000000 
Pt176	 0.425184	 0.811578	 0.500000 
Pt177	 0.348638	 0.767384	 0.500000 
Pt178	 0.288267	 0.783560	 0.000000 
Pt179	 0.244073	 0.860106	 0.000000 
Pt180	 0.304443	 0.843930	 0.500000 
Pt181	 0.227897	 0.799736	 0.500000 
Pt182	 0.167527	 0.815912	 0.000000 
Pt183	 0.123332	 0.892459	 0.000000 
Pt184	 0.183703	 0.876282	 0.500000 
Pt185	 0.107156	 0.832088	 0.500000 
Pt186	 0.984694	 0.726362	 0.500000 
Pt187	 0.924323	 0.742539	 0.000000 
Pt188	 0.880129	 0.819085	 0.000000 
Pt189	 0.940500	 0.802909	 0.500000 
Pt190	 0.863953	 0.758715	 0.500000 
Pt191	 0.803583	 0.774891	 0.000000 
Pt192	 0.759388	 0.851437	 0.000000 
Pt193	 0.819759	 0.835261	 0.500000 
Pt194	 0.743212	 0.791067	 0.500000 
Pt195	 0.682842	 0.807243	 0.000000 
Pt196	 0.638648	 0.883790	 0.000000 
Pt197	 0.699018	 0.867614	 0.500000 
Pt198	 0.622471	 0.823419	 0.500000 
Pt199	 0.562101	 0.839596	 0.000000 
Pt200	 0.517907	 0.916142	 0.000000 
Pt201	 0.578277	 0.899966	 0.500000 
Pt202	 0.501731	 0.855772	 0.500000 
Pt203	 0.441360	 0.871948	 0.000000 
Pt204	 0.397166	 0.948495	 0.000000 
Pt205	 0.457537	 0.932318	 0.500000 
Pt206	 0.380990	 0.888124	 0.500000 
Pt207	 0.320620	 0.904300	 0.000000 
Pt208	 0.276425	 0.980847	 0.000000 
Pt209	 0.336796	 0.964671	 0.500000 
Pt210	 0.260249	 0.920477	 0.500000 
Pt211	 0.199879	 0.936653	 0.000000 
Pt212	 0.216055	 0.997023	 0.500000 
Pt213	 0.139509	 0.952829	 0.500000 
Pt214	 0.956676	 0.863279	 0.000000 
Pt215	 0.896305	 0.879455	 0.500000 
Pt216	 0.835935	 0.895632	 0.000000 
Pt217	 0.532922	 0.006252	 0.000000 
Pt218	 0.775565	 0.911808	 0.500000 
Pt219	 0.715194	 0.927984	 0.000000 
Pt220	 0.412181	 0.038605	 0.000000 
Pt221	 0.472551	 0.022429	 0.500000 
Pt222	 0.654824	 0.944160	 0.500000 
Pt223	 0.594454	 0.960336	 0.000000 
Pt224	 0.291440	 0.070957	 0.000000 
Pt225	 0.351811	 0.054781	 0.500000 
Pt226	 0.534083	 0.976513	 0.500000 
Pt227	 0.473713	 0.992689	 0.000000 
Pt228	 0.170700	 0.103310	 0.000000 
Pt229	 0.231070	 0.087133	 0.500000 
Pt230	 0.049959	 0.135662	 0.000000 
Pt231	 0.110329	 0.119486	 0.500000 
#                 ---end-of-data-block---
