data_Pt structure along [001] nx 11 ny 8 nz 1
_cell_length_a               31.360000
_cell_length_b               31.360000
_cell_length_c               2.771859
_cell_angle_alpha          90.000000
_cell_angle_beta           90.000000
_cell_angle_gamma          90.000000
_symmetry_cell_setting          Triclinic
_symmetry_space_group_name_H-M 'P 1' 
loop_
_atom_site_label
_atom_site_fract_x
_atom_site_fract_y
_atom_site_fract_z
Co1	 0.748664	 0.035692	 0.500000 
Co2	 0.676855	 0.009180	 0.000000 
Co3	 0.627923	 0.068044	 0.500000 
Co4	 0.556114	 0.041532	 0.000000 
Co5	 0.507182	 0.100397	 0.500000 
Co6	 0.435374	 0.073884	 0.000000 
Co7	 0.386441	 0.132749	 0.500000 
Co8	 0.314633	 0.106237	 0.000000 
Co9	 0.265701	 0.165101	 0.500000 
Co10	 0.193892	 0.138589	 0.000000 
Co11	 0.144960	 0.197454	 0.500000 
Co12	 0.073151	 0.170942	 0.000000 
Co13	 0.024219	 0.229806	 0.500000 
Co14	 0.869404	 0.003339	 0.500000 
Co15	 0.820472	 0.062204	 0.000000 
Co16	 0.771540	 0.121068	 0.500000 
Co17	 0.699732	 0.094556	 0.000000 
Co18	 0.650800	 0.153421	 0.500000 
Co19	 0.578991	 0.126909	 0.000000 
Co20	 0.530059	 0.185773	 0.500000 
Co21	 0.458250	 0.159261	 0.000000 
Co22	 0.409318	 0.218126	 0.500000 
Co23	 0.337509	 0.191613	 0.000000 
Co24	 0.288577	 0.250478	 0.500000 
Co25	 0.216769	 0.223966	 0.000000 
Co26	 0.167837	 0.282830	 0.500000 
Co27	 0.096028	 0.256318	 0.000000 
Co28	 0.047096	 0.315183	 0.500000 
Co29	 0.892281	 0.088716	 0.500000 
Co30	 0.843349	 0.147580	 0.000000 
Co31	 0.794417	 0.206445	 0.500000 
Co32	 0.722608	 0.179933	 0.000000 
Co33	 0.673676	 0.238797	 0.500000 
Co34	 0.601867	 0.212285	 0.000000 
Co35	 0.552935	 0.271150	 0.500000 
Co36	 0.481127	 0.244638	 0.000000 
Co37	 0.432195	 0.303502	 0.500000 
Co38	 0.360386	 0.276990	 0.000000 
Co39	 0.311454	 0.335855	 0.500000 
Co40	 0.239645	 0.309342	 0.000000 
Co41	 0.190713	 0.368207	 0.500000 
Co42	 0.118905	 0.341695	 0.000000 
Co43	 0.069972	 0.400559	 0.500000 
Co44	 0.915158	 0.174093	 0.500000 
Co45	 0.866226	 0.232957	 0.000000 
Co46	 0.817293	 0.291822	 0.500000 
Co47	 0.745485	 0.265309	 0.000000 
Co48	 0.696553	 0.324174	 0.500000 
Co49	 0.624744	 0.297662	 0.000000 
Co50	 0.575812	 0.356526	 0.500000 
Co51	 0.504003	 0.330014	 0.000000 
Co52	 0.455071	 0.388879	 0.500000 
Co53	 0.383263	 0.362367	 0.000000 
Co54	 0.334331	 0.421231	 0.500000 
Co55	 0.262522	 0.394719	 0.000000 
Co56	 0.213590	 0.453583	 0.500000 
Co57	 0.141781	 0.427071	 0.000000 
Co58	 0.092849	 0.485936	 0.500000 
Co59	 0.021040	 0.459424	 0.000000 
Co60	 0.938034	 0.259469	 0.500000 
Co61	 0.889102	 0.318334	 0.000000 
Co62	 0.840170	 0.377198	 0.500000 
Co63	 0.768361	 0.350686	 0.000000 
Co64	 0.719429	 0.409551	 0.500000 
Co65	 0.647621	 0.383038	 0.000000 
Co66	 0.598689	 0.441903	 0.500000 
Co67	 0.526880	 0.415391	 0.000000 
Co68	 0.477948	 0.474255	 0.500000 
Co69	 0.406139	 0.447743	 0.000000 
Co70	 0.357207	 0.506608	 0.500000 
Co71	 0.285398	 0.480096	 0.000000 
Co72	 0.236466	 0.538960	 0.500000 
Co73	 0.164658	 0.512448	 0.000000 
Co74	 0.115726	 0.571312	 0.500000 
Co75	 0.043917	 0.544800	 0.000000 
Co76	 0.960911	 0.344846	 0.500000 
Co77	 0.911979	 0.403710	 0.000000 
Co78	 0.863047	 0.462575	 0.500000 
Co79	 0.791238	 0.436063	 0.000000 
Co80	 0.742306	 0.494927	 0.500000 
Co81	 0.670497	 0.468415	 0.000000 
Co82	 0.621565	 0.527280	 0.500000 
Co83	 0.549757	 0.500767	 0.000000 
Co84	 0.500824	 0.559632	 0.500000 
Co85	 0.429016	 0.533120	 0.000000 
Co86	 0.380084	 0.591984	 0.500000 
Co87	 0.308275	 0.565472	 0.000000 
Co88	 0.259343	 0.624337	 0.500000 
Co89	 0.187534	 0.597825	 0.000000 
Co90	 0.138602	 0.656689	 0.500000 
Co91	 0.066794	 0.630177	 0.000000 
Co92	 0.983787	 0.430222	 0.500000 
Co93	 0.934855	 0.489087	 0.000000 
Co94	 0.885923	 0.547951	 0.500000 
Co95	 0.814115	 0.521439	 0.000000 
Co96	 0.765182	 0.580304	 0.500000 
Co97	 0.693374	 0.553792	 0.000000 
Co98	 0.644442	 0.612656	 0.500000 
Co99	 0.572633	 0.586144	 0.000000 
Co100	 0.523701	 0.645008	 0.500000 
Co101	 0.451892	 0.618496	 0.000000 
Co102	 0.402960	 0.677361	 0.500000 
Co103	 0.331152	 0.650849	 0.000000 
Co104	 0.282220	 0.709713	 0.500000 
Co105	 0.210411	 0.683201	 0.000000 
Co106	 0.161479	 0.742066	 0.500000 
Co107	 0.089670	 0.715554	 0.000000 
Co108	 0.957732	 0.574463	 0.000000 
Co109	 0.908800	 0.633328	 0.500000 
Co110	 0.836991	 0.606816	 0.000000 
Co111	 0.788059	 0.665680	 0.500000 
Co112	 0.716250	 0.639168	 0.000000 
Co113	 0.667318	 0.698033	 0.500000 
Co114	 0.595510	 0.671521	 0.000000 
Co115	 0.546578	 0.730385	 0.500000 
Co116	 0.474769	 0.703873	 0.000000 
Co117	 0.425837	 0.762737	 0.500000 
Co118	 0.354028	 0.736225	 0.000000 
Co119	 0.305096	 0.795090	 0.500000 
Co120	 0.233287	 0.768578	 0.000000 
Co121	 0.184355	 0.827442	 0.500000 
Co122	 0.112547	 0.800930	 0.000000 
Co123	 0.980608	 0.659840	 0.000000 
Co124	 0.931676	 0.718705	 0.500000 
Co125	 0.859868	 0.692192	 0.000000 
Co126	 0.810936	 0.751057	 0.500000 
Co127	 0.739127	 0.724545	 0.000000 
Co128	 0.690195	 0.783409	 0.500000 
Co129	 0.618386	 0.756897	 0.000000 
Co130	 0.569454	 0.815762	 0.500000 
Co131	 0.497646	 0.789250	 0.000000 
Co132	 0.448713	 0.848114	 0.500000 
Co133	 0.376905	 0.821602	 0.000000 
Co134	 0.327973	 0.880466	 0.500000 
Co135	 0.256164	 0.853954	 0.000000 
Co136	 0.207232	 0.912819	 0.500000 
Co137	 0.135423	 0.886307	 0.000000 
Co138	 0.954553	 0.804081	 0.500000 
Co139	 0.882744	 0.777569	 0.000000 
Co140	 0.833812	 0.836433	 0.500000 
Co141	 0.762004	 0.809921	 0.000000 
Co142	 0.713072	 0.868786	 0.500000 
Co143	 0.641263	 0.842274	 0.000000 
Co144	 0.592331	 0.901138	 0.500000 
Co145	 0.520522	 0.874626	 0.000000 
Co146	 0.471590	 0.933491	 0.500000 
Co147	 0.399781	 0.906979	 0.000000 
Co148	 0.350849	 0.965843	 0.500000 
Co149	 0.279041	 0.939331	 0.000000 
Co150	 0.230109	 0.998195	 0.500000 
Co151	 0.158300	 0.971683	 0.000000 
Co152	 0.905621	 0.862946	 0.000000 
Co153	 0.784880	 0.895298	 0.000000 
Co154	 0.484306	 0.015020	 0.500000 
Co155	 0.664139	 0.927650	 0.000000 
Co156	 0.363565	 0.047372	 0.500000 
Co157	 0.543399	 0.960003	 0.000000 
Co158	 0.242824	 0.079725	 0.500000 
Co159	 0.422658	 0.992355	 0.000000 
Co160	 0.122083	 0.112077	 0.500000 
Co161	 0.001343	 0.144430	 0.500000 
#                 ---end-of-data-block---
