data_Pt structure along [001] nx 7 ny 7 nz 1
_cell_length_a               29.260000
_cell_length_b               29.260000
_cell_length_c               4.180000
_cell_angle_alpha          90.000000
_cell_angle_beta           90.000000
_cell_angle_gamma          90.000000
_symmetry_cell_setting          Triclinic
_symmetry_space_group_name_H-M 'P 1' 
loop_
_atom_site_label
_atom_site_fract_x
_atom_site_fract_y
_atom_site_fract_z
Co1	 0.238585	 0.003198	 0.000000 
Co2	 0.151103	 0.053705	 0.000000 
Co3	 0.220098	 0.072192	 0.500000 
Co4	 0.201611	 0.141187	 0.000000 
Co5	 0.132616	 0.122700	 0.500000 
Co6	 0.114129	 0.191695	 0.000000 
Co7	 0.183124	 0.210182	 0.500000 
Co8	 0.164637	 0.279177	 0.000000 
Co9	 0.095642	 0.260689	 0.500000 
Co10	 0.077155	 0.329684	 0.000000 
Co11	 0.146150	 0.348171	 0.500000 
Co12	 0.127663	 0.417166	 0.000000 
Co13	 0.058668	 0.398679	 0.500000 
Co14	 0.040181	 0.467674	 0.000000 
Co15	 0.109175	 0.486161	 0.500000 
Co16	 0.090688	 0.555155	 0.000000 
Co17	 0.021694	 0.536668	 0.500000 
Co18	 0.003207	 0.605663	 0.000000 
Co19	 0.072201	 0.624150	 0.500000 
Co20	 0.053714	 0.693145	 0.000000 
Co21	 0.035227	 0.762139	 0.500000 
Co22	 0.016740	 0.831134	 0.000000 
Co23	 0.376574	 0.040172	 0.000000 
Co24	 0.307580	 0.021685	 0.500000 
Co25	 0.289093	 0.090679	 0.000000 
Co26	 0.358087	 0.109167	 0.500000 
Co27	 0.339600	 0.178161	 0.000000 
Co28	 0.270606	 0.159674	 0.500000 
Co29	 0.252118	 0.228669	 0.000000 
Co30	 0.321113	 0.247156	 0.500000 
Co31	 0.302626	 0.316151	 0.000000 
Co32	 0.233631	 0.297664	 0.500000 
Co33	 0.215144	 0.366658	 0.000000 
Co34	 0.284139	 0.385145	 0.500000 
Co35	 0.265652	 0.454140	 0.000000 
Co36	 0.196657	 0.435653	 0.500000 
Co37	 0.178170	 0.504648	 0.000000 
Co38	 0.247165	 0.523135	 0.500000 
Co39	 0.228678	 0.592129	 0.000000 
Co40	 0.159683	 0.573642	 0.500000 
Co41	 0.141196	 0.642637	 0.000000 
Co42	 0.210191	 0.661124	 0.500000 
Co43	 0.191704	 0.730119	 0.000000 
Co44	 0.122709	 0.711632	 0.500000 
Co45	 0.104222	 0.780626	 0.000000 
Co46	 0.173217	 0.799114	 0.500000 
Co47	 0.154729	 0.868108	 0.000000 
Co48	 0.085735	 0.849621	 0.500000 
Co49	 0.533051	 0.008151	 0.500000 
Co50	 0.514564	 0.077146	 0.000000 
Co51	 0.445569	 0.058659	 0.500000 
Co52	 0.427082	 0.127654	 0.000000 
Co53	 0.496077	 0.146141	 0.500000 
Co54	 0.477590	 0.215135	 0.000000 
Co55	 0.408595	 0.196648	 0.500000 
Co56	 0.390108	 0.265643	 0.000000 
Co57	 0.459103	 0.284130	 0.500000 
Co58	 0.440615	 0.353125	 0.000000 
Co59	 0.371621	 0.334638	 0.500000 
Co60	 0.353134	 0.403632	 0.000000 
Co61	 0.422128	 0.422120	 0.500000 
Co62	 0.403641	 0.491114	 0.000000 
Co63	 0.334647	 0.472627	 0.500000 
Co64	 0.316160	 0.541622	 0.000000 
Co65	 0.385154	 0.560109	 0.500000 
Co66	 0.366667	 0.629104	 0.000000 
Co67	 0.297672	 0.610617	 0.500000 
Co68	 0.279185	 0.679611	 0.000000 
Co69	 0.348180	 0.698098	 0.500000 
Co70	 0.329693	 0.767093	 0.000000 
Co71	 0.260698	 0.748606	 0.500000 
Co72	 0.242211	 0.817601	 0.000000 
Co73	 0.311206	 0.836088	 0.500000 
Co74	 0.292719	 0.905082	 0.000000 
Co75	 0.223724	 0.886595	 0.500000 
Co76	 0.602046	 0.026638	 0.000000 
Co77	 0.671040	 0.045125	 0.500000 
Co78	 0.652553	 0.114120	 0.000000 
Co79	 0.583558	 0.095633	 0.500000 
Co80	 0.565071	 0.164628	 0.000000 
Co81	 0.634066	 0.183115	 0.500000 
Co82	 0.615579	 0.252110	 0.000000 
Co83	 0.546584	 0.233622	 0.500000 
Co84	 0.528097	 0.302617	 0.000000 
Co85	 0.597092	 0.321104	 0.500000 
Co86	 0.578605	 0.390099	 0.000000 
Co87	 0.509610	 0.371612	 0.500000 
Co88	 0.491123	 0.440607	 0.000000 
Co89	 0.560118	 0.459094	 0.500000 
Co90	 0.541631	 0.528088	 0.000000 
Co91	 0.472636	 0.509601	 0.500000 
Co92	 0.454149	 0.578596	 0.000000 
Co93	 0.523144	 0.597083	 0.500000 
Co94	 0.504657	 0.666078	 0.000000 
Co95	 0.435662	 0.647591	 0.500000 
Co96	 0.417175	 0.716585	 0.000000 
Co97	 0.486170	 0.735072	 0.500000 
Co98	 0.467682	 0.804067	 0.000000 
Co99	 0.398688	 0.785580	 0.500000 
Co100	 0.380201	 0.854575	 0.000000 
Co101	 0.449195	 0.873062	 0.500000 
Co102	 0.430708	 0.942057	 0.000000 
Co103	 0.361714	 0.923570	 0.500000 
Co104	 0.740035	 0.063613	 0.000000 
Co105	 0.809030	 0.082100	 0.500000 
Co106	 0.790543	 0.151094	 0.000000 
Co107	 0.721548	 0.132607	 0.500000 
Co108	 0.703061	 0.201602	 0.000000 
Co109	 0.772056	 0.220089	 0.500000 
Co110	 0.753568	 0.289084	 0.000000 
Co111	 0.684574	 0.270597	 0.500000 
Co112	 0.666087	 0.339591	 0.000000 
Co113	 0.735081	 0.358078	 0.500000 
Co114	 0.716594	 0.427073	 0.000000 
Co115	 0.647600	 0.408586	 0.500000 
Co116	 0.629113	 0.477581	 0.000000 
Co117	 0.698107	 0.496068	 0.500000 
Co118	 0.679620	 0.565063	 0.000000 
Co119	 0.610625	 0.546575	 0.500000 
Co120	 0.592138	 0.615570	 0.000000 
Co121	 0.661133	 0.634057	 0.500000 
Co122	 0.642646	 0.703052	 0.000000 
Co123	 0.573651	 0.684565	 0.500000 
Co124	 0.555164	 0.753560	 0.000000 
Co125	 0.624159	 0.772047	 0.500000 
Co126	 0.605672	 0.841041	 0.000000 
Co127	 0.536677	 0.822554	 0.500000 
Co128	 0.518190	 0.891549	 0.000000 
Co129	 0.587185	 0.910036	 0.500000 
Co130	 0.568698	 0.979031	 0.000000 
Co131	 0.499703	 0.960544	 0.500000 
Co132	 0.878024	 0.100587	 0.000000 
Co133	 0.947019	 0.119074	 0.500000 
Co134	 0.928532	 0.188068	 0.000000 
Co135	 0.859537	 0.169581	 0.500000 
Co136	 0.841050	 0.238576	 0.000000 
Co137	 0.910045	 0.257063	 0.500000 
Co138	 0.891558	 0.326058	 0.000000 
Co139	 0.822563	 0.307571	 0.500000 
Co140	 0.804076	 0.376565	 0.000000 
Co141	 0.873071	 0.395053	 0.500000 
Co142	 0.854584	 0.464047	 0.000000 
Co143	 0.785589	 0.445560	 0.500000 
Co144	 0.767102	 0.514555	 0.000000 
Co145	 0.836097	 0.533042	 0.500000 
Co146	 0.817610	 0.602037	 0.000000 
Co147	 0.748615	 0.583550	 0.500000 
Co148	 0.730128	 0.652544	 0.000000 
Co149	 0.799122	 0.671031	 0.500000 
Co150	 0.780635	 0.740026	 0.000000 
Co151	 0.711641	 0.721539	 0.500000 
Co152	 0.693154	 0.790534	 0.000000 
Co153	 0.762148	 0.809021	 0.500000 
Co154	 0.743661	 0.878015	 0.000000 
Co155	 0.674667	 0.859528	 0.500000 
Co156	 0.656179	 0.928523	 0.000000 
Co157	 0.725174	 0.947010	 0.500000 
Co158	 0.637692	 0.997518	 0.500000 
Co159	 0.997527	 0.206556	 0.500000 
Co160	 0.979040	 0.275550	 0.000000 
Co161	 0.960553	 0.344545	 0.500000 
Co162	 0.942065	 0.413540	 0.000000 
Co163	 0.992573	 0.501021	 0.000000 
Co164	 0.923578	 0.482534	 0.500000 
Co165	 0.905091	 0.551529	 0.000000 
Co166	 0.974086	 0.570016	 0.500000 
Co167	 0.955599	 0.639011	 0.000000 
Co168	 0.886604	 0.620524	 0.500000 
Co169	 0.868117	 0.689518	 0.000000 
Co170	 0.937112	 0.708006	 0.500000 
Co171	 0.918625	 0.777000	 0.000000 
Co172	 0.849630	 0.758513	 0.500000 
Co173	 0.831143	 0.827508	 0.000000 
Co174	 0.900138	 0.845995	 0.500000 
Co175	 0.881651	 0.914990	 0.000000 
Co176	 0.812656	 0.896503	 0.500000 
Co177	 0.794169	 0.965497	 0.000000 
Co178	 0.863164	 0.983984	 0.500000 
#                 ---end-of-data-block---
