data_NiO [110] nx 6 ny 4 nz 1
_cell_length_a               30.735000
_cell_length_b               30.735000
_cell_length_c               2.957500
_cell_angle_alpha          90.000000
_cell_angle_beta           90.000000
_cell_angle_gamma          90.000000
_symmetry_cell_setting          Triclinic
_symmetry_space_group_name_H-M 'P 1' 
loop_
_atom_site_label
_atom_site_fract_x
_atom_site_fract_y
_atom_site_fract_z
Ni1	 0.393244	 0.018434	 1.000000 
Ni2	 0.305846	 0.058698	 0.000000 
Ni3	 0.362788	 0.182295	 0.000000 
Ni4	 0.290619	 0.140629	 0.500000 
Ni5	 0.378015	 0.100364	 0.500000 
Ni6	 0.275397	 0.222549	 1.000000 
Ni7	 0.188000	 0.262813	 0.000000 
Ni8	 0.244941	 0.386411	 0.000000 
Ni9	 0.172773	 0.344744	 0.500000 
Ni10	 0.203229	 0.180883	 0.500000 
Ni11	 0.260169	 0.304480	 0.500000 
Ni12	 0.157551	 0.426665	 1.000000 
Ni13	 0.070154	 0.466928	 0.000000 
Ni14	 0.127095	 0.590526	 0.000000 
Ni15	 0.054927	 0.548859	 0.500000 
Ni16	 0.085383	 0.384998	 0.500000 
Ni17	 0.142323	 0.508595	 0.500000 
Ni18	 0.039705	 0.630780	 1.000000 
Ni19	 0.024476	 0.712711	 0.500000 
Ni20	 0.537581	 0.101767	 1.000000 
Ni21	 0.450184	 0.142031	 0.000000 
Ni22	 0.507125	 0.265629	 0.000000 
Ni23	 0.434956	 0.223962	 0.500000 
Ni24	 0.465412	 0.060101	 0.500000 
Ni25	 0.522352	 0.183698	 0.500000 
Ni26	 0.419735	 0.305883	 1.000000 
Ni27	 0.332337	 0.346146	 0.000000 
Ni28	 0.389279	 0.469744	 0.000000 
Ni29	 0.317110	 0.428077	 0.500000 
Ni30	 0.347566	 0.264216	 0.500000 
Ni31	 0.404506	 0.387813	 0.500000 
Ni32	 0.301889	 0.509998	 1.000000 
Ni33	 0.214491	 0.550262	 0.000000 
Ni34	 0.271433	 0.673859	 0.000000 
Ni35	 0.199264	 0.632193	 0.500000 
Ni36	 0.229720	 0.468332	 0.500000 
Ni37	 0.286660	 0.591928	 0.500000 
Ni38	 0.184043	 0.714114	 1.000000 
Ni39	 0.096645	 0.754377	 0.000000 
Ni40	 0.624971	 0.061513	 0.000000 
Ni41	 0.552802	 0.019846	 0.500000 
Ni42	 0.111874	 0.672447	 0.500000 
Ni43	 0.168814	 0.796044	 0.500000 
Ni44	 0.681919	 0.185101	 1.000000 
Ni45	 0.594521	 0.225364	 0.000000 
Ni46	 0.651463	 0.348962	 0.000000 
Ni47	 0.579294	 0.307295	 0.500000 
Ni48	 0.609750	 0.143434	 0.500000 
Ni49	 0.666690	 0.267031	 0.500000 
Ni50	 0.564073	 0.389216	 1.000000 
Ni51	 0.476675	 0.429480	 0.000000 
Ni52	 0.533617	 0.553077	 0.000000 
Ni53	 0.461448	 0.511411	 0.500000 
Ni54	 0.491904	 0.347549	 0.500000 
Ni55	 0.548844	 0.471146	 0.500000 
Ni56	 0.446226	 0.593332	 1.000000 
Ni57	 0.358829	 0.633595	 0.000000 
Ni58	 0.415770	 0.757193	 0.000000 
Ni59	 0.343602	 0.715526	 0.500000 
Ni60	 0.374058	 0.551665	 0.500000 
Ni61	 0.430998	 0.675262	 0.500000 
Ni62	 0.328380	 0.797447	 1.000000 
Ni63	 0.240983	 0.837711	 0.000000 
Ni64	 0.769309	 0.144846	 0.000000 
Ni65	 0.697140	 0.103180	 0.500000 
Ni66	 0.256212	 0.755780	 0.500000 
Ni67	 0.313152	 0.879377	 0.500000 
Ni68	 0.826256	 0.268434	 1.000000 
Ni69	 0.738859	 0.308698	 0.000000 
Ni70	 0.795800	 0.432295	 0.000000 
Ni71	 0.723631	 0.390629	 0.500000 
Ni72	 0.754087	 0.226767	 0.500000 
Ni73	 0.811028	 0.350364	 0.500000 
Ni74	 0.708410	 0.472549	 1.000000 
Ni75	 0.621013	 0.512813	 0.000000 
Ni76	 0.677954	 0.636411	 0.000000 
Ni77	 0.605785	 0.594744	 0.500000 
Ni78	 0.636241	 0.430883	 0.500000 
Ni79	 0.693181	 0.554480	 0.500000 
Ni80	 0.590564	 0.676665	 1.000000 
Ni81	 0.503167	 0.716928	 0.000000 
Ni82	 0.560108	 0.840526	 0.000000 
Ni83	 0.487939	 0.798859	 0.500000 
Ni84	 0.518395	 0.634998	 0.500000 
Ni85	 0.575335	 0.758595	 0.500000 
Ni86	 0.472718	 0.880780	 1.000000 
Ni87	 0.385320	 0.921044	 0.000000 
Ni88	 0.913646	 0.228180	 0.000000 
Ni89	 0.841478	 0.186513	 0.500000 
Ni90	 0.400549	 0.839114	 0.500000 
Ni91	 0.457489	 0.962711	 0.500000 
Ni92	 0.970594	 0.351767	 1.000000 
Ni93	 0.883196	 0.392031	 0.000000 
Ni94	 0.940138	 0.515629	 0.000000 
Ni95	 0.867969	 0.473962	 0.500000 
Ni96	 0.898425	 0.310101	 0.500000 
Ni97	 0.955365	 0.433698	 0.500000 
Ni98	 0.852748	 0.555883	 1.000000 
Ni99	 0.765350	 0.596146	 0.000000 
Ni100	 0.822292	 0.719744	 0.000000 
Ni101	 0.750123	 0.678077	 0.500000 
Ni102	 0.780579	 0.514216	 0.500000 
Ni103	 0.837519	 0.637813	 0.500000 
Ni104	 0.734902	 0.759998	 1.000000 
Ni105	 0.647504	 0.800262	 0.000000 
Ni106	 0.704446	 0.923859	 0.000000 
Ni107	 0.632277	 0.882193	 0.500000 
Ni108	 0.662733	 0.718332	 0.500000 
Ni109	 0.719673	 0.841928	 0.500000 
Ni110	 0.617055	 0.964114	 1.000000 
Ni111	 0.985815	 0.269846	 0.500000 
Ni112	 0.544887	 0.922447	 0.500000 
Ni113	 0.218450	 0.098962	 0.000000 
Ni114	 0.233677	 0.017031	 0.500000 
Ni115	 0.131060	 0.139216	 1.000000 
Ni116	 0.909688	 0.679480	 0.000000 
Ni117	 0.100604	 0.303077	 0.000000 
Ni118	 0.894461	 0.761411	 0.500000 
Ni119	 0.924916	 0.597549	 0.500000 
Ni120	 0.115831	 0.221146	 0.500000 
Ni121	 0.013214	 0.343332	 1.000000 
Ni122	 0.791842	 0.883595	 0.000000 
Ni123	 0.776614	 0.965526	 0.500000 
Ni124	 0.807070	 0.801665	 0.500000 
#                 ---end-of-data-block---
