data_NiO [110] nx 6 ny 4 nz 1
_cell_length_a               30.735000
_cell_length_b               30.735000
_cell_length_c               2.957500
_cell_angle_alpha          90.000000
_cell_angle_beta           90.000000
_cell_angle_gamma          90.000000
_symmetry_cell_setting          Triclinic
_symmetry_space_group_name_H-M 'P 1' 
loop_
_atom_site_label
_atom_site_fract_x
_atom_site_fract_y
_atom_site_fract_z
Ni1	 0.452705	 0.090345	 0.000000 
Ni2	 0.393779	 0.031419	 0.500000 
Ni3	 0.488618	 0.015146	 0.500000 
Ni4	 0.357874	 0.106609	 1.000000 
Ni5	 0.263033	 0.122880	 0.000000 
Ni6	 0.286045	 0.257004	 0.000000 
Ni7	 0.227120	 0.198079	 0.500000 
Ni8	 0.298948	 0.047683	 0.500000 
Ni9	 0.321959	 0.181806	 0.500000 
Ni10	 0.191214	 0.273268	 1.000000 
Ni11	 0.096374	 0.289540	 0.000000 
Ni12	 0.119386	 0.423664	 0.000000 
Ni13	 0.060460	 0.364738	 0.500000 
Ni14	 0.132289	 0.214343	 0.500000 
Ni15	 0.155299	 0.348466	 0.500000 
Ni16	 0.024555	 0.439928	 1.000000 
Ni17	 0.642384	 0.057801	 1.000000 
Ni18	 0.547544	 0.074072	 0.000000 
Ni19	 0.570556	 0.208196	 0.000000 
Ni20	 0.511630	 0.149270	 0.500000 
Ni21	 0.606470	 0.132998	 0.500000 
Ni22	 0.475725	 0.224460	 1.000000 
Ni23	 0.380884	 0.240732	 0.000000 
Ni24	 0.403896	 0.374855	 0.000000 
Ni25	 0.344971	 0.315930	 0.500000 
Ni26	 0.416799	 0.165534	 0.500000 
Ni27	 0.439810	 0.299657	 0.500000 
Ni28	 0.309065	 0.391120	 1.000000 
Ni29	 0.214225	 0.407391	 0.000000 
Ni30	 0.237237	 0.541515	 0.000000 
Ni31	 0.178311	 0.482589	 0.500000 
Ni32	 0.250140	 0.332194	 0.500000 
Ni33	 0.273150	 0.466317	 0.500000 
Ni34	 0.142406	 0.557779	 1.000000 
Ni35	 0.047565	 0.574051	 0.000000 
Ni36	 0.070577	 0.708174	 0.000000 
Ni37	 0.011652	 0.649249	 0.500000 
Ni38	 0.083480	 0.498854	 0.500000 
Ni39	 0.106491	 0.632976	 0.500000 
Ni40	 0.760236	 0.175652	 1.000000 
Ni41	 0.665395	 0.191923	 0.000000 
Ni42	 0.688407	 0.326047	 0.000000 
Ni43	 0.629481	 0.267121	 0.500000 
Ni44	 0.701310	 0.116726	 0.500000 
Ni45	 0.724321	 0.250849	 0.500000 
Ni46	 0.593576	 0.342311	 1.000000 
Ni47	 0.498736	 0.358583	 0.000000 
Ni48	 0.521747	 0.492706	 0.000000 
Ni49	 0.462822	 0.433781	 0.500000 
Ni50	 0.534650	 0.283386	 0.500000 
Ni51	 0.557661	 0.417508	 0.500000 
Ni52	 0.426916	 0.508971	 1.000000 
Ni53	 0.332076	 0.525242	 0.000000 
Ni54	 0.355088	 0.659366	 0.000000 
Ni55	 0.296162	 0.600440	 0.500000 
Ni56	 0.367991	 0.450045	 0.500000 
Ni57	 0.391002	 0.584168	 0.500000 
Ni58	 0.260257	 0.675630	 1.000000 
Ni59	 0.165416	 0.691902	 0.000000 
Ni60	 0.188428	 0.826026	 0.000000 
Ni61	 0.129503	 0.767100	 0.500000 
Ni62	 0.201331	 0.616705	 0.500000 
Ni63	 0.224342	 0.750827	 0.500000 
Ni64	 0.878087	 0.293503	 1.000000 
Ni65	 0.783246	 0.309774	 0.000000 
Ni66	 0.806258	 0.443898	 0.000000 
Ni67	 0.747333	 0.384972	 0.500000 
Ni68	 0.819161	 0.234577	 0.500000 
Ni69	 0.842172	 0.368700	 0.500000 
Ni70	 0.711427	 0.460162	 1.000000 
Ni71	 0.616587	 0.476434	 0.000000 
Ni72	 0.639599	 0.610558	 0.000000 
Ni73	 0.580673	 0.551632	 0.500000 
Ni74	 0.652502	 0.401237	 0.500000 
Ni75	 0.675512	 0.535359	 0.500000 
Ni76	 0.544768	 0.626822	 1.000000 
Ni77	 0.449927	 0.643093	 0.000000 
Ni78	 0.472939	 0.777217	 0.000000 
Ni79	 0.414013	 0.718292	 0.500000 
Ni80	 0.485842	 0.567896	 0.500000 
Ni81	 0.508853	 0.702019	 0.500000 
Ni82	 0.378108	 0.793481	 1.000000 
Ni83	 0.283268	 0.809753	 0.000000 
Ni84	 0.306279	 0.943877	 0.000000 
Ni85	 0.247354	 0.884951	 0.500000 
Ni86	 0.319183	 0.734556	 0.500000 
Ni87	 0.342193	 0.868678	 0.500000 
Ni88	 0.995938	 0.411354	 1.000000 
Ni89	 0.901097	 0.427625	 0.000000 
Ni90	 0.924109	 0.561749	 0.000000 
Ni91	 0.865184	 0.502824	 0.500000 
Ni92	 0.937012	 0.352428	 0.500000 
Ni93	 0.960023	 0.486551	 0.500000 
Ni94	 0.829278	 0.578013	 1.000000 
Ni95	 0.734438	 0.594285	 0.000000 
Ni96	 0.757450	 0.728409	 0.000000 
Ni97	 0.698524	 0.669483	 0.500000 
Ni98	 0.770353	 0.519088	 0.500000 
Ni99	 0.793363	 0.653210	 0.500000 
Ni100	 0.662619	 0.744673	 1.000000 
Ni101	 0.567778	 0.760944	 0.000000 
Ni102	 0.590790	 0.895068	 0.000000 
Ni103	 0.531865	 0.836143	 0.500000 
Ni104	 0.603693	 0.685747	 0.500000 
Ni105	 0.626704	 0.819870	 0.500000 
Ni106	 0.495959	 0.911333	 1.000000 
Ni107	 0.401119	 0.927604	 0.000000 
Ni108	 0.437034	 0.852407	 0.500000 
Ni109	 0.460044	 0.986530	 0.500000 
Ni110	 0.983035	 0.620675	 0.500000 
Ni111	 0.947129	 0.695865	 1.000000 
Ni112	 0.852289	 0.712136	 0.000000 
Ni113	 0.168194	 0.139153	 0.000000 
Ni114	 0.816375	 0.787334	 0.500000 
Ni115	 0.888204	 0.636939	 0.500000 
Ni116	 0.911215	 0.771062	 0.500000 
Ni117	 0.780470	 0.862524	 1.000000 
Ni118	 0.685629	 0.878796	 0.000000 
Ni119	 0.001534	 0.305813	 0.000000 
Ni120	 0.649716	 0.953994	 0.500000 
Ni121	 0.721544	 0.803599	 0.500000 
Ni122	 0.744555	 0.937721	 0.500000 
Ni123	 0.554885	 0.970258	 0.500000 
#                 ---end-of-data-block---
