data_TiO2_rutile [001] nx 7 ny 7 nz 1
_cell_length_a               32.158000
_cell_length_b               32.158000
_cell_length_c               2.959000
_cell_angle_alpha          90.000000
_cell_angle_beta           90.000000
_cell_angle_gamma          90.000000
_symmetry_cell_setting          Triclinic
_symmetry_space_group_name_H-M 'P 1' 
loop_
_atom_site_label
_atom_site_fract_x
_atom_site_fract_y
_atom_site_fract_z
Ti1	 0.304502	 0.050673	 0.500000 
Ti2	 0.217020	 0.101181	 0.000000 
Ti3	 0.267527	 0.188663	 0.500000 
Ti4	 0.180046	 0.239170	 0.000000 
Ti5	 0.230553	 0.326652	 0.500000 
Ti6	 0.143071	 0.377160	 0.000000 
Ti7	 0.193579	 0.464641	 0.500000 
Ti8	 0.106097	 0.515149	 0.000000 
Ti9	 0.156605	 0.602631	 0.500000 
Ti10	 0.069123	 0.653138	 0.000000 
Ti11	 0.119631	 0.740620	 0.500000 
Ti12	 0.032149	 0.791128	 0.000000 
Ti13	 0.082657	 0.878610	 0.500000 
Ti14	 0.391983	 0.000166	 0.000000 
Ti15	 0.442491	 0.087647	 0.500000 
Ti16	 0.355009	 0.138155	 0.000000 
Ti17	 0.405517	 0.225637	 0.500000 
Ti18	 0.318035	 0.276144	 0.000000 
Ti19	 0.368543	 0.363626	 0.500000 
Ti20	 0.281061	 0.414134	 0.000000 
Ti21	 0.331569	 0.501616	 0.500000 
Ti22	 0.244087	 0.552123	 0.000000 
Ti23	 0.294594	 0.639605	 0.500000 
Ti24	 0.207113	 0.690113	 0.000000 
Ti25	 0.257620	 0.777594	 0.500000 
Ti26	 0.170138	 0.828102	 0.000000 
Ti27	 0.220646	 0.915584	 0.500000 
Ti28	 0.529973	 0.037140	 0.000000 
Ti29	 0.580480	 0.124621	 0.500000 
Ti30	 0.492999	 0.175129	 0.000000 
Ti31	 0.543506	 0.262611	 0.500000 
Ti32	 0.456024	 0.313118	 0.000000 
Ti33	 0.506532	 0.400600	 0.500000 
Ti34	 0.419050	 0.451108	 0.000000 
Ti35	 0.469558	 0.538590	 0.500000 
Ti36	 0.382076	 0.589097	 0.000000 
Ti37	 0.432584	 0.676579	 0.500000 
Ti38	 0.345102	 0.727087	 0.000000 
Ti39	 0.395610	 0.814568	 0.500000 
Ti40	 0.308128	 0.865076	 0.000000 
Ti41	 0.358635	 0.952558	 0.500000 
Ti42	 0.667962	 0.074114	 0.000000 
Ti43	 0.718470	 0.161596	 0.500000 
Ti44	 0.630988	 0.212103	 0.000000 
Ti45	 0.681496	 0.299585	 0.500000 
Ti46	 0.594014	 0.350093	 0.000000 
Ti47	 0.644521	 0.437574	 0.500000 
Ti48	 0.557040	 0.488082	 0.000000 
Ti49	 0.607547	 0.575564	 0.500000 
Ti50	 0.520066	 0.626071	 0.000000 
Ti51	 0.570573	 0.713553	 0.500000 
Ti52	 0.483091	 0.764061	 0.000000 
Ti53	 0.533599	 0.851543	 0.500000 
Ti54	 0.446117	 0.902050	 0.000000 
Ti55	 0.496625	 0.989532	 0.500000 
Ti56	 0.805952	 0.111088	 0.000000 
Ti57	 0.856459	 0.198570	 0.500000 
Ti58	 0.768977	 0.249077	 0.000000 
Ti59	 0.819485	 0.336559	 0.500000 
Ti60	 0.732003	 0.387067	 0.000000 
Ti61	 0.782511	 0.474549	 0.500000 
Ti62	 0.695029	 0.525056	 0.000000 
Ti63	 0.745537	 0.612538	 0.500000 
Ti64	 0.658055	 0.663046	 0.000000 
Ti65	 0.708563	 0.750527	 0.500000 
Ti66	 0.621081	 0.801035	 0.000000 
Ti67	 0.671588	 0.888517	 0.500000 
Ti68	 0.584107	 0.939024	 0.000000 
Ti69	 0.943941	 0.148062	 0.000000 
Ti70	 0.994449	 0.235544	 0.500000 
Ti71	 0.906967	 0.286052	 0.000000 
Ti72	 0.957474	 0.373533	 0.500000 
Ti73	 0.869993	 0.424041	 0.000000 
Ti74	 0.920500	 0.511523	 0.500000 
Ti75	 0.833019	 0.562030	 0.000000 
Ti76	 0.883526	 0.649512	 0.500000 
Ti77	 0.796044	 0.700020	 0.000000 
Ti78	 0.846552	 0.787502	 0.500000 
Ti79	 0.759070	 0.838009	 0.000000 
Ti80	 0.809578	 0.925491	 0.500000 
Ti81	 0.722096	 0.975999	 0.000000 
Ti82	 0.166512	 0.013699	 0.500000 
Ti83	 0.129538	 0.151688	 0.500000 
Ti84	 0.092564	 0.289678	 0.500000 
Ti85	 0.971008	 0.599004	 0.000000 
Ti86	 0.055590	 0.427667	 0.500000 
Ti87	 0.934034	 0.736994	 0.000000 
Ti88	 0.018616	 0.565657	 0.500000 
Ti89	 0.897060	 0.874983	 0.000000 
#                 ---end-of-data-block---
