data_TiO2_rutile [110] nx 10 ny 5 nz 1
_cell_length_a               32.484485
_cell_length_b               32.484485
_cell_length_c               6.496897
_cell_angle_alpha          90.000000
_cell_angle_beta           90.000000
_cell_angle_gamma          90.000000
_symmetry_cell_setting          Triclinic
_symmetry_space_group_name_H-M 'P 1' 
loop_
_atom_site_label
_atom_site_fract_x
_atom_site_fract_y
_atom_site_fract_z
Ti1	 0.358992	 0.022009	 0.000000 
Ti2	 0.269549	 0.085839	 0.000000 
Ti3	 0.219549	 0.172442	 0.500000 
Ti4	 0.258992	 0.195214	 0.000000 
Ti5	 0.308992	 0.108611	 0.500000 
Ti6	 0.169549	 0.259044	 0.000000 
Ti7	 0.119549	 0.345647	 0.500000 
Ti8	 0.158992	 0.368419	 0.000000 
Ti9	 0.208992	 0.281817	 0.500000 
Ti10	 0.069549	 0.432249	 0.000000 
Ti11	 0.019549	 0.518852	 0.500000 
Ti12	 0.058992	 0.541624	 0.000000 
Ti13	 0.108992	 0.455022	 0.500000 
Ti14	 0.008992	 0.628227	 0.500000 
Ti15	 0.398435	 0.044781	 0.500000 
Ti16	 0.437878	 0.067554	 0.000000 
Ti17	 0.348435	 0.131384	 0.000000 
Ti18	 0.298435	 0.217986	 0.500000 
Ti19	 0.337878	 0.240759	 0.000000 
Ti20	 0.387878	 0.154156	 0.500000 
Ti21	 0.248435	 0.304589	 0.000000 
Ti22	 0.198435	 0.391191	 0.500000 
Ti23	 0.237878	 0.413964	 0.000000 
Ti24	 0.287878	 0.327361	 0.500000 
Ti25	 0.148435	 0.477794	 0.000000 
Ti26	 0.098435	 0.564397	 0.500000 
Ti27	 0.137878	 0.587169	 0.000000 
Ti28	 0.187878	 0.500566	 0.500000 
Ti29	 0.048435	 0.650999	 0.000000 
Ti30	 0.037878	 0.760374	 0.000000 
Ti31	 0.087878	 0.673772	 0.500000 
Ti32	 0.527321	 0.003724	 0.000000 
Ti33	 0.477321	 0.090326	 0.500000 
Ti34	 0.516764	 0.113099	 0.000000 
Ti35	 0.566764	 0.026496	 0.500000 
Ti36	 0.427321	 0.176929	 0.000000 
Ti37	 0.377321	 0.263531	 0.500000 
Ti38	 0.416764	 0.286304	 0.000000 
Ti39	 0.466764	 0.199701	 0.500000 
Ti40	 0.327321	 0.350134	 0.000000 
Ti41	 0.277321	 0.436736	 0.500000 
Ti42	 0.316764	 0.459509	 0.000000 
Ti43	 0.366764	 0.372906	 0.500000 
Ti44	 0.227321	 0.523339	 0.000000 
Ti45	 0.177321	 0.609941	 0.500000 
Ti46	 0.216764	 0.632714	 0.000000 
Ti47	 0.266764	 0.546111	 0.500000 
Ti48	 0.127321	 0.696544	 0.000000 
Ti49	 0.077321	 0.783146	 0.500000 
Ti50	 0.116764	 0.805919	 0.000000 
Ti51	 0.166764	 0.719316	 0.500000 
Ti52	 0.606207	 0.049268	 0.000000 
Ti53	 0.556207	 0.135871	 0.500000 
Ti54	 0.595650	 0.158643	 0.000000 
Ti55	 0.645650	 0.072041	 0.500000 
Ti56	 0.506207	 0.222474	 0.000000 
Ti57	 0.456207	 0.309076	 0.500000 
Ti58	 0.495650	 0.331848	 0.000000 
Ti59	 0.545650	 0.245246	 0.500000 
Ti60	 0.406207	 0.395679	 0.000000 
Ti61	 0.356207	 0.482281	 0.500000 
Ti62	 0.395650	 0.505054	 0.000000 
Ti63	 0.445650	 0.418451	 0.500000 
Ti64	 0.306207	 0.568884	 0.000000 
Ti65	 0.256207	 0.655486	 0.500000 
Ti66	 0.295650	 0.678259	 0.000000 
Ti67	 0.345650	 0.591656	 0.500000 
Ti68	 0.206207	 0.742089	 0.000000 
Ti69	 0.156207	 0.828691	 0.500000 
Ti70	 0.195650	 0.851464	 0.000000 
Ti71	 0.245650	 0.764861	 0.500000 
Ti72	 0.685093	 0.094813	 0.000000 
Ti73	 0.635093	 0.181416	 0.500000 
Ti74	 0.674536	 0.204188	 0.000000 
Ti75	 0.724536	 0.117586	 0.500000 
Ti76	 0.585093	 0.268018	 0.000000 
Ti77	 0.535093	 0.354621	 0.500000 
Ti78	 0.574536	 0.377393	 0.000000 
Ti79	 0.624536	 0.290791	 0.500000 
Ti80	 0.485093	 0.441223	 0.000000 
Ti81	 0.435093	 0.527826	 0.500000 
Ti82	 0.474536	 0.550598	 0.000000 
Ti83	 0.524536	 0.463996	 0.500000 
Ti84	 0.385093	 0.614428	 0.000000 
Ti85	 0.335093	 0.701031	 0.500000 
Ti86	 0.374536	 0.723803	 0.000000 
Ti87	 0.424536	 0.637201	 0.500000 
Ti88	 0.285093	 0.787634	 0.000000 
Ti89	 0.235093	 0.874236	 0.500000 
Ti90	 0.274536	 0.897009	 0.000000 
Ti91	 0.324536	 0.810406	 0.500000 
Ti92	 0.763979	 0.140358	 0.000000 
Ti93	 0.713979	 0.226961	 0.500000 
Ti94	 0.753422	 0.249733	 0.000000 
Ti95	 0.803422	 0.163130	 0.500000 
Ti96	 0.663979	 0.313563	 0.000000 
Ti97	 0.613979	 0.400166	 0.500000 
Ti98	 0.653422	 0.422938	 0.000000 
Ti99	 0.703422	 0.336336	 0.500000 
Ti100	 0.563979	 0.486768	 0.000000 
Ti101	 0.513979	 0.573371	 0.500000 
Ti102	 0.553422	 0.596143	 0.000000 
Ti103	 0.603422	 0.509541	 0.500000 
Ti104	 0.463979	 0.659973	 0.000000 
Ti105	 0.413979	 0.746576	 0.500000 
Ti106	 0.453422	 0.769348	 0.000000 
Ti107	 0.503422	 0.682746	 0.500000 
Ti108	 0.363979	 0.833178	 0.000000 
Ti109	 0.313979	 0.919781	 0.500000 
Ti110	 0.353422	 0.942553	 0.000000 
Ti111	 0.403422	 0.855951	 0.500000 
Ti112	 0.842865	 0.185903	 0.000000 
Ti113	 0.792865	 0.272505	 0.500000 
Ti114	 0.832308	 0.295278	 0.000000 
Ti115	 0.882308	 0.208675	 0.500000 
Ti116	 0.742865	 0.359108	 0.000000 
Ti117	 0.692865	 0.445711	 0.500000 
Ti118	 0.732308	 0.468483	 0.000000 
Ti119	 0.782308	 0.381880	 0.500000 
Ti120	 0.642865	 0.532313	 0.000000 
Ti121	 0.592865	 0.618916	 0.500000 
Ti122	 0.632308	 0.641688	 0.000000 
Ti123	 0.682308	 0.555085	 0.500000 
Ti124	 0.542865	 0.705518	 0.000000 
Ti125	 0.492865	 0.792121	 0.500000 
Ti126	 0.532308	 0.814893	 0.000000 
Ti127	 0.582308	 0.728291	 0.500000 
Ti128	 0.442865	 0.878723	 0.000000 
Ti129	 0.392865	 0.965326	 0.500000 
Ti130	 0.432308	 0.988098	 0.000000 
Ti131	 0.482308	 0.901496	 0.500000 
Ti132	 0.921751	 0.231448	 0.000000 
Ti133	 0.871751	 0.318050	 0.500000 
Ti134	 0.911194	 0.340823	 0.000000 
Ti135	 0.961194	 0.254220	 0.500000 
Ti136	 0.821751	 0.404653	 0.000000 
Ti137	 0.771751	 0.491255	 0.500000 
Ti138	 0.811194	 0.514028	 0.000000 
Ti139	 0.861194	 0.427425	 0.500000 
Ti140	 0.721751	 0.577858	 0.000000 
Ti141	 0.671751	 0.664460	 0.500000 
Ti142	 0.711194	 0.687233	 0.000000 
Ti143	 0.761194	 0.600630	 0.500000 
Ti144	 0.621751	 0.751063	 0.000000 
Ti145	 0.571751	 0.837665	 0.500000 
Ti146	 0.611194	 0.860438	 0.000000 
Ti147	 0.661194	 0.773835	 0.500000 
Ti148	 0.521751	 0.924268	 0.000000 
Ti149	 0.561194	 0.947040	 0.500000 
Ti150	 0.950637	 0.363595	 0.500000 
Ti151	 0.990080	 0.386367	 0.000000 
Ti152	 0.900637	 0.450198	 0.000000 
Ti153	 0.850637	 0.536800	 0.500000 
Ti154	 0.890080	 0.559573	 0.000000 
Ti155	 0.940080	 0.472970	 0.500000 
Ti156	 0.800637	 0.623403	 0.000000 
Ti157	 0.750637	 0.710005	 0.500000 
Ti158	 0.790080	 0.732778	 0.000000 
Ti159	 0.840080	 0.646175	 0.500000 
Ti160	 0.700637	 0.796608	 0.000000 
Ti161	 0.650637	 0.883210	 0.500000 
Ti162	 0.690080	 0.905983	 0.000000 
Ti163	 0.740080	 0.819380	 0.500000 
Ti164	 0.600637	 0.969813	 0.000000 
Ti165	 0.640080	 0.992585	 0.500000 
Ti166	 0.979523	 0.495742	 0.000000 
Ti167	 0.929523	 0.582345	 0.500000 
Ti168	 0.180106	 0.149669	 0.000000 
Ti169	 0.230106	 0.063067	 0.500000 
Ti170	 0.879523	 0.668948	 0.000000 
Ti171	 0.829523	 0.755550	 0.500000 
Ti172	 0.080106	 0.322874	 0.000000 
Ti173	 0.130106	 0.236272	 0.500000 
Ti174	 0.779523	 0.842153	 0.000000 
Ti175	 0.729523	 0.928755	 0.500000 
Ti176	 0.030106	 0.409477	 0.500000 
#                 ---end-of-data-block---
