data_Si [110] nx 8 ny 6 nz 1
_cell_length_a               32.580000
_cell_length_b               32.580000
_cell_length_c               3.839590
_cell_angle_alpha          90.000000
_cell_angle_beta           90.000000
_cell_angle_gamma          90.000000
_symmetry_cell_setting          Triclinic
_symmetry_space_group_name_H-M 'P 1' 
loop_
_atom_site_label
_atom_site_fract_x
_atom_site_fract_y
_atom_site_fract_z
Si1	 0.082889	 0.062440	 0.000000 
Si2	 0.141815	 0.187440	 0.000000 
Si3	 0.082889	 0.104106	 0.500000 
Si4	 0.141815	 0.145773	 0.500000 
Si5	 0.082889	 0.229106	 0.000000 
Si6	 0.141815	 0.354106	 0.000000 
Si7	 0.082889	 0.270773	 0.500000 
Si8	 0.141815	 0.312440	 0.500000 
Si9	 0.082889	 0.395773	 0.000000 
Si10	 0.141815	 0.520773	 0.000000 
Si11	 0.082889	 0.437440	 0.500000 
Si12	 0.141815	 0.479106	 0.500000 
Si13	 0.082889	 0.562440	 0.000000 
Si14	 0.141815	 0.687440	 0.000000 
Si15	 0.082889	 0.604106	 0.500000 
Si16	 0.141815	 0.645773	 0.500000 
Si17	 0.082889	 0.729106	 0.000000 
Si18	 0.141815	 0.854106	 0.000000 
Si19	 0.082889	 0.770773	 0.500000 
Si20	 0.141815	 0.812440	 0.500000 
Si21	 0.082889	 0.895773	 0.000000 
Si22	 0.141815	 0.020773	 0.000000 
Si23	 0.082889	 0.937440	 0.500000 
Si24	 0.141815	 0.979106	 0.500000 
Si25	 0.200740	 0.062440	 0.000000 
Si26	 0.259666	 0.187440	 0.000000 
Si27	 0.200740	 0.104106	 0.500000 
Si28	 0.259666	 0.145773	 0.500000 
Si29	 0.200740	 0.229106	 0.000000 
Si30	 0.259666	 0.354106	 0.000000 
Si31	 0.200740	 0.270773	 0.500000 
Si32	 0.259666	 0.312440	 0.500000 
Si33	 0.200740	 0.395773	 0.000000 
Si34	 0.259666	 0.520773	 0.000000 
Si35	 0.200740	 0.437440	 0.500000 
Si36	 0.259666	 0.479106	 0.500000 
Si37	 0.200740	 0.562440	 0.000000 
Si38	 0.259666	 0.687440	 0.000000 
Si39	 0.200740	 0.604106	 0.500000 
Si40	 0.259666	 0.645773	 0.500000 
Si41	 0.200740	 0.729106	 0.000000 
Si42	 0.259666	 0.854106	 0.000000 
Si43	 0.200740	 0.770773	 0.500000 
Si44	 0.259666	 0.812440	 0.500000 
Si45	 0.200740	 0.895773	 0.000000 
Si46	 0.259666	 0.020773	 0.000000 
Si47	 0.200740	 0.937440	 0.500000 
Si48	 0.259666	 0.979106	 0.500000 
Si49	 0.318591	 0.062440	 0.000000 
Si50	 0.377517	 0.187440	 0.000000 
Si51	 0.318591	 0.104106	 0.500000 
Si52	 0.377517	 0.145773	 0.500000 
Si53	 0.318591	 0.229106	 0.000000 
Si54	 0.377517	 0.354106	 0.000000 
Si55	 0.318591	 0.270773	 0.500000 
Si56	 0.377517	 0.312440	 0.500000 
Si57	 0.318591	 0.395773	 0.000000 
Si58	 0.377517	 0.520773	 0.000000 
Si59	 0.318591	 0.437440	 0.500000 
Si60	 0.377517	 0.479106	 0.500000 
Si61	 0.318591	 0.562440	 0.000000 
Si62	 0.377517	 0.687440	 0.000000 
Si63	 0.318591	 0.604106	 0.500000 
Si64	 0.377517	 0.645773	 0.500000 
Si65	 0.318591	 0.729106	 0.000000 
Si66	 0.377517	 0.854106	 0.000000 
Si67	 0.318591	 0.770773	 0.500000 
Si68	 0.377517	 0.812440	 0.500000 
Si69	 0.318591	 0.895773	 0.000000 
Si70	 0.377517	 0.020773	 0.000000 
Si71	 0.318591	 0.937440	 0.500000 
Si72	 0.377517	 0.979106	 0.500000 
Si73	 0.436442	 0.062440	 0.000000 
Si74	 0.495368	 0.187440	 0.000000 
Si75	 0.436442	 0.104106	 0.500000 
Si76	 0.495368	 0.145773	 0.500000 
Si77	 0.436442	 0.229106	 0.000000 
Si78	 0.495368	 0.354106	 0.000000 
Si79	 0.436442	 0.270773	 0.500000 
Si80	 0.495368	 0.312440	 0.500000 
Si81	 0.436442	 0.395773	 0.000000 
Si82	 0.495368	 0.520773	 0.000000 
Si83	 0.436442	 0.437440	 0.500000 
Si84	 0.495368	 0.479106	 0.500000 
Si85	 0.436442	 0.562440	 0.000000 
Si86	 0.495368	 0.687440	 0.000000 
Si87	 0.436442	 0.604106	 0.500000 
Si88	 0.495368	 0.645773	 0.500000 
Si89	 0.436442	 0.729106	 0.000000 
Si90	 0.495368	 0.854106	 0.000000 
Si91	 0.436442	 0.770773	 0.500000 
Si92	 0.495368	 0.812440	 0.500000 
Si93	 0.436442	 0.895773	 0.000000 
Si94	 0.495368	 0.020773	 0.000000 
Si95	 0.436442	 0.937440	 0.500000 
Si96	 0.495368	 0.979106	 0.500000 
Si97	 0.554294	 0.062440	 0.000000 
Si98	 0.613219	 0.187440	 0.000000 
Si99	 0.554294	 0.104106	 0.500000 
Si100	 0.613219	 0.145773	 0.500000 
Si101	 0.554294	 0.229106	 0.000000 
Si102	 0.613219	 0.354106	 0.000000 
Si103	 0.554294	 0.270773	 0.500000 
Si104	 0.613219	 0.312440	 0.500000 
Si105	 0.554294	 0.395773	 0.000000 
Si106	 0.613219	 0.520773	 0.000000 
Si107	 0.554294	 0.437440	 0.500000 
Si108	 0.613219	 0.479106	 0.500000 
Si109	 0.554294	 0.562440	 0.000000 
Si110	 0.613219	 0.687440	 0.000000 
Si111	 0.554294	 0.604106	 0.500000 
Si112	 0.613219	 0.645773	 0.500000 
Si113	 0.554294	 0.729106	 0.000000 
Si114	 0.613219	 0.854106	 0.000000 
Si115	 0.554294	 0.770773	 0.500000 
Si116	 0.613219	 0.812440	 0.500000 
Si117	 0.554294	 0.895773	 0.000000 
Si118	 0.613219	 0.020773	 0.000000 
Si119	 0.554294	 0.937440	 0.500000 
Si120	 0.613219	 0.979106	 0.500000 
Si121	 0.672145	 0.062440	 0.000000 
Si122	 0.731070	 0.187440	 0.000000 
Si123	 0.672145	 0.104106	 0.500000 
Si124	 0.731070	 0.145773	 0.500000 
Si125	 0.672145	 0.229106	 0.000000 
Si126	 0.731070	 0.354106	 0.000000 
Si127	 0.672145	 0.270773	 0.500000 
Si128	 0.731070	 0.312440	 0.500000 
Si129	 0.672145	 0.395773	 0.000000 
Si130	 0.731070	 0.520773	 0.000000 
Si131	 0.672145	 0.437440	 0.500000 
Si132	 0.731070	 0.479106	 0.500000 
Si133	 0.672145	 0.562440	 0.000000 
Si134	 0.731070	 0.687440	 0.000000 
Si135	 0.672145	 0.604106	 0.500000 
Si136	 0.731070	 0.645773	 0.500000 
Si137	 0.672145	 0.729106	 0.000000 
Si138	 0.731070	 0.854106	 0.000000 
Si139	 0.672145	 0.770773	 0.500000 
Si140	 0.731070	 0.812440	 0.500000 
Si141	 0.672145	 0.895773	 0.000000 
Si142	 0.731070	 0.020773	 0.000000 
Si143	 0.672145	 0.937440	 0.500000 
Si144	 0.731070	 0.979106	 0.500000 
Si145	 0.789996	 0.062440	 0.000000 
Si146	 0.848921	 0.187440	 0.000000 
Si147	 0.789996	 0.104106	 0.500000 
Si148	 0.848921	 0.145773	 0.500000 
Si149	 0.789996	 0.229106	 0.000000 
Si150	 0.848921	 0.354106	 0.000000 
Si151	 0.789996	 0.270773	 0.500000 
Si152	 0.848921	 0.312440	 0.500000 
Si153	 0.789996	 0.395773	 0.000000 
Si154	 0.848921	 0.520773	 0.000000 
Si155	 0.789996	 0.437440	 0.500000 
Si156	 0.848921	 0.479106	 0.500000 
Si157	 0.789996	 0.562440	 0.000000 
Si158	 0.848921	 0.687440	 0.000000 
Si159	 0.789996	 0.604106	 0.500000 
Si160	 0.848921	 0.645773	 0.500000 
Si161	 0.789996	 0.729106	 0.000000 
Si162	 0.848921	 0.854106	 0.000000 
Si163	 0.789996	 0.770773	 0.500000 
Si164	 0.848921	 0.812440	 0.500000 
Si165	 0.789996	 0.895773	 0.000000 
Si166	 0.848921	 0.020773	 0.000000 
Si167	 0.789996	 0.937440	 0.500000 
Si168	 0.848921	 0.979106	 0.500000 
Si169	 0.907847	 0.062440	 0.000000 
Si170	 0.966773	 0.187440	 0.000000 
Si171	 0.907847	 0.104106	 0.500000 
Si172	 0.966773	 0.145773	 0.500000 
Si173	 0.907847	 0.229106	 0.000000 
Si174	 0.966773	 0.354106	 0.000000 
Si175	 0.907847	 0.270773	 0.500000 
Si176	 0.966773	 0.312440	 0.500000 
Si177	 0.907847	 0.395773	 0.000000 
Si178	 0.966773	 0.520773	 0.000000 
Si179	 0.907847	 0.437440	 0.500000 
Si180	 0.966773	 0.479106	 0.500000 
Si181	 0.907847	 0.562440	 0.000000 
Si182	 0.966773	 0.687440	 0.000000 
Si183	 0.907847	 0.604106	 0.500000 
Si184	 0.966773	 0.645773	 0.500000 
Si185	 0.907847	 0.729106	 0.000000 
Si186	 0.966773	 0.854106	 0.000000 
Si187	 0.907847	 0.770773	 0.500000 
Si188	 0.966773	 0.812440	 0.500000 
Si189	 0.907847	 0.895773	 0.000000 
Si190	 0.966773	 0.020773	 0.000000 
Si191	 0.907847	 0.937440	 0.500000 
Si192	 0.966773	 0.979106	 0.500000 
#                 ---end-of-data-block---
