data_Si [110] nx 8 ny 6 nz 1
_cell_length_a               32.580000
_cell_length_b               32.580000
_cell_length_c               3.839590
_cell_angle_alpha          90.000000
_cell_angle_beta           90.000000
_cell_angle_gamma          90.000000
_symmetry_cell_setting          Triclinic
_symmetry_space_group_name_H-M 'P 1' 
loop_
_atom_site_label
_atom_site_fract_x
_atom_site_fract_y
_atom_site_fract_z
Si1	 0.215681	 0.053691	 0.000000 
Si2	 0.240246	 0.189683	 0.000000 
Si3	 0.204896	 0.093938	 0.500000 
Si4	 0.251030	 0.149436	 0.500000 
Si5	 0.172544	 0.214678	 0.000000 
Si6	 0.197109	 0.350670	 0.000000 
Si7	 0.161760	 0.254925	 0.500000 
Si8	 0.207894	 0.310423	 0.500000 
Si9	 0.129408	 0.375666	 0.000000 
Si10	 0.153973	 0.511658	 0.000000 
Si11	 0.118623	 0.415913	 0.500000 
Si12	 0.164757	 0.471411	 0.500000 
Si13	 0.086271	 0.536654	 0.000000 
Si14	 0.110836	 0.672645	 0.000000 
Si15	 0.075487	 0.576901	 0.500000 
Si16	 0.121620	 0.632399	 0.500000 
Si17	 0.043135	 0.697641	 0.000000 
Si18	 0.067700	 0.833633	 0.000000 
Si19	 0.032350	 0.737888	 0.500000 
Si20	 0.078484	 0.793386	 0.500000 
Si21	 0.283382	 0.028695	 0.000000 
Si22	 0.329516	 0.084193	 0.000000 
Si23	 0.354081	 0.220185	 0.000000 
Si24	 0.318732	 0.124440	 0.500000 
Si25	 0.364865	 0.179938	 0.500000 
Si26	 0.286379	 0.245180	 0.000000 
Si27	 0.310945	 0.381172	 0.000000 
Si28	 0.275595	 0.285427	 0.500000 
Si29	 0.321729	 0.340925	 0.500000 
Si30	 0.243243	 0.406168	 0.000000 
Si31	 0.267808	 0.542160	 0.000000 
Si32	 0.232459	 0.446415	 0.500000 
Si33	 0.278592	 0.501913	 0.500000 
Si34	 0.200106	 0.567156	 0.000000 
Si35	 0.224672	 0.703148	 0.000000 
Si36	 0.189322	 0.607403	 0.500000 
Si37	 0.235456	 0.662901	 0.500000 
Si38	 0.156970	 0.728143	 0.000000 
Si39	 0.181535	 0.864135	 0.000000 
Si40	 0.146186	 0.768390	 0.500000 
Si41	 0.192319	 0.823888	 0.500000 
Si42	 0.113833	 0.889131	 0.000000 
Si43	 0.397218	 0.059197	 0.000000 
Si44	 0.408002	 0.018950	 0.500000 
Si45	 0.443351	 0.114695	 0.000000 
Si46	 0.467917	 0.250687	 0.000000 
Si47	 0.432567	 0.154942	 0.500000 
Si48	 0.478701	 0.210440	 0.500000 
Si49	 0.400215	 0.275683	 0.000000 
Si50	 0.424780	 0.411674	 0.000000 
Si51	 0.389431	 0.315929	 0.500000 
Si52	 0.435564	 0.371427	 0.500000 
Si53	 0.357078	 0.436670	 0.000000 
Si54	 0.381644	 0.572662	 0.000000 
Si55	 0.346294	 0.476917	 0.500000 
Si56	 0.392428	 0.532415	 0.500000 
Si57	 0.313942	 0.597658	 0.000000 
Si58	 0.338507	 0.733650	 0.000000 
Si59	 0.303158	 0.637905	 0.500000 
Si60	 0.349291	 0.693403	 0.500000 
Si61	 0.270805	 0.758646	 0.000000 
Si62	 0.295371	 0.894637	 0.000000 
Si63	 0.260021	 0.798892	 0.500000 
Si64	 0.306155	 0.854390	 0.500000 
Si65	 0.227669	 0.919633	 0.000000 
Si66	 0.511053	 0.089699	 0.000000 
Si67	 0.521837	 0.049452	 0.500000 
Si68	 0.557187	 0.145197	 0.000000 
Si69	 0.581752	 0.281189	 0.000000 
Si70	 0.546403	 0.185444	 0.500000 
Si71	 0.592536	 0.240942	 0.500000 
Si72	 0.514050	 0.306185	 0.000000 
Si73	 0.538616	 0.442176	 0.000000 
Si74	 0.503266	 0.346432	 0.500000 
Si75	 0.549400	 0.401930	 0.500000 
Si76	 0.470914	 0.467172	 0.000000 
Si77	 0.495479	 0.603164	 0.000000 
Si78	 0.460130	 0.507419	 0.500000 
Si79	 0.506263	 0.562917	 0.500000 
Si80	 0.427777	 0.628160	 0.000000 
Si81	 0.452343	 0.764152	 0.000000 
Si82	 0.416993	 0.668407	 0.500000 
Si83	 0.463127	 0.723905	 0.500000 
Si84	 0.384641	 0.789148	 0.000000 
Si85	 0.409206	 0.925139	 0.000000 
Si86	 0.373857	 0.829395	 0.500000 
Si87	 0.419990	 0.884892	 0.500000 
Si88	 0.341504	 0.950135	 0.000000 
Si89	 0.624889	 0.120201	 0.000000 
Si90	 0.589539	 0.024456	 0.500000 
Si91	 0.635673	 0.079954	 0.500000 
Si92	 0.671022	 0.175699	 0.000000 
Si93	 0.695588	 0.311691	 0.000000 
Si94	 0.660238	 0.215946	 0.500000 
Si95	 0.706372	 0.271444	 0.500000 
Si96	 0.627886	 0.336687	 0.000000 
Si97	 0.652451	 0.472679	 0.000000 
Si98	 0.617102	 0.376934	 0.500000 
Si99	 0.663235	 0.432432	 0.500000 
Si100	 0.584749	 0.497674	 0.000000 
Si101	 0.609315	 0.633666	 0.000000 
Si102	 0.573965	 0.537921	 0.500000 
Si103	 0.620099	 0.593419	 0.500000 
Si104	 0.541613	 0.658662	 0.000000 
Si105	 0.566178	 0.794654	 0.000000 
Si106	 0.530829	 0.698909	 0.500000 
Si107	 0.576962	 0.754407	 0.500000 
Si108	 0.498476	 0.819650	 0.000000 
Si109	 0.523042	 0.955642	 0.000000 
Si110	 0.487692	 0.859897	 0.500000 
Si111	 0.533826	 0.915395	 0.500000 
Si112	 0.455340	 0.980637	 0.000000 
Si113	 0.738724	 0.150703	 0.000000 
Si114	 0.703375	 0.054958	 0.500000 
Si115	 0.749508	 0.110456	 0.500000 
Si116	 0.784858	 0.206201	 0.000000 
Si117	 0.809423	 0.342193	 0.000000 
Si118	 0.774074	 0.246448	 0.500000 
Si119	 0.820207	 0.301946	 0.500000 
Si120	 0.741721	 0.367189	 0.000000 
Si121	 0.766287	 0.503181	 0.000000 
Si122	 0.730937	 0.407436	 0.500000 
Si123	 0.777071	 0.462934	 0.500000 
Si124	 0.698585	 0.528177	 0.000000 
Si125	 0.723150	 0.664168	 0.000000 
Si126	 0.687801	 0.568423	 0.500000 
Si127	 0.733934	 0.623921	 0.500000 
Si128	 0.655448	 0.689164	 0.000000 
Si129	 0.680014	 0.825156	 0.000000 
Si130	 0.644664	 0.729411	 0.500000 
Si131	 0.690798	 0.784909	 0.500000 
Si132	 0.612312	 0.850152	 0.000000 
Si133	 0.636877	 0.986144	 0.000000 
Si134	 0.601528	 0.890399	 0.500000 
Si135	 0.647661	 0.945897	 0.500000 
Si136	 0.852560	 0.181205	 0.000000 
Si137	 0.817210	 0.085461	 0.500000 
Si138	 0.863344	 0.140959	 0.500000 
Si139	 0.898693	 0.236703	 0.000000 
Si140	 0.923259	 0.372695	 0.000000 
Si141	 0.887909	 0.276950	 0.500000 
Si142	 0.934043	 0.332448	 0.500000 
Si143	 0.855557	 0.397691	 0.000000 
Si144	 0.880122	 0.533683	 0.000000 
Si145	 0.844773	 0.437938	 0.500000 
Si146	 0.890906	 0.493436	 0.500000 
Si147	 0.812420	 0.558679	 0.000000 
Si148	 0.836986	 0.694670	 0.000000 
Si149	 0.801636	 0.598926	 0.500000 
Si150	 0.847770	 0.654424	 0.500000 
Si151	 0.769284	 0.719666	 0.000000 
Si152	 0.793849	 0.855658	 0.000000 
Si153	 0.758500	 0.759913	 0.500000 
Si154	 0.804633	 0.815411	 0.500000 
Si155	 0.726147	 0.880654	 0.000000 
Si156	 0.715363	 0.920901	 0.500000 
Si157	 0.761497	 0.976399	 0.500000 
Si158	 0.966395	 0.211708	 0.000000 
Si159	 0.931046	 0.115963	 0.500000 
Si160	 0.977179	 0.171461	 0.500000 
Si161	 0.126410	 0.159180	 0.000000 
Si162	 0.137195	 0.118933	 0.500000 
Si163	 0.969392	 0.428193	 0.000000 
Si164	 0.083274	 0.320168	 0.000000 
Si165	 0.958608	 0.468440	 0.500000 
Si166	 0.094058	 0.279921	 0.500000 
Si167	 0.926256	 0.589181	 0.000000 
Si168	 0.040137	 0.481156	 0.000000 
Si169	 0.915472	 0.629428	 0.500000 
Si170	 0.050922	 0.440909	 0.500000 
Si171	 0.883119	 0.750168	 0.000000 
Si172	 0.872335	 0.790415	 0.500000 
Si173	 0.007785	 0.601896	 0.500000 
Si174	 0.839983	 0.911156	 0.000000 
Si175	 0.829199	 0.951403	 0.500000 
#                 ---end-of-data-block---
