data_Si [110] nx 8 ny 6 nz 1
_cell_length_a               32.580000
_cell_length_b               32.580000
_cell_length_c               3.839590
_cell_angle_alpha          90.000000
_cell_angle_beta           90.000000
_cell_angle_gamma          90.000000
_symmetry_cell_setting          Triclinic
_symmetry_space_group_name_H-M 'P 1' 
loop_
_atom_site_label
_atom_site_fract_x
_atom_site_fract_y
_atom_site_fract_z
Si1	 0.462549	 0.111637	 0.000000 
Si2	 0.479808	 0.011045	 0.500000 
Si3	 0.492012	 0.082174	 0.500000 
Si4	 0.391420	 0.099433	 0.000000 
Si5	 0.344698	 0.229488	 0.000000 
Si6	 0.361957	 0.128896	 0.500000 
Si7	 0.374161	 0.200025	 0.500000 
Si8	 0.273569	 0.217284	 0.000000 
Si9	 0.226847	 0.347339	 0.000000 
Si10	 0.244106	 0.246747	 0.500000 
Si11	 0.256310	 0.317876	 0.500000 
Si12	 0.155718	 0.335135	 0.000000 
Si13	 0.108996	 0.465190	 0.000000 
Si14	 0.126255	 0.364598	 0.500000 
Si15	 0.138459	 0.435727	 0.500000 
Si16	 0.037867	 0.452986	 0.000000 
Si17	 0.008404	 0.482449	 0.500000 
Si18	 0.020608	 0.553579	 0.500000 
Si19	 0.592604	 0.064915	 0.000000 
Si20	 0.545883	 0.194970	 0.000000 
Si21	 0.563142	 0.094378	 0.500000 
Si22	 0.575346	 0.165507	 0.500000 
Si23	 0.474753	 0.182766	 0.000000 
Si24	 0.428032	 0.312821	 0.000000 
Si25	 0.445291	 0.212229	 0.500000 
Si26	 0.457494	 0.283359	 0.500000 
Si27	 0.356902	 0.300617	 0.000000 
Si28	 0.310181	 0.430672	 0.000000 
Si29	 0.327439	 0.330080	 0.500000 
Si30	 0.339643	 0.401210	 0.500000 
Si31	 0.239051	 0.418469	 0.000000 
Si32	 0.192329	 0.548524	 0.000000 
Si33	 0.209588	 0.447931	 0.500000 
Si34	 0.221792	 0.519061	 0.500000 
Si35	 0.121200	 0.536320	 0.000000 
Si36	 0.074478	 0.666375	 0.000000 
Si37	 0.091737	 0.565782	 0.500000 
Si38	 0.103941	 0.636912	 0.500000 
Si39	 0.003349	 0.654171	 0.000000 
Si40	 0.663734	 0.077119	 0.000000 
Si41	 0.693197	 0.047656	 0.500000 
Si42	 0.675938	 0.148249	 0.000000 
Si43	 0.629216	 0.278304	 0.000000 
Si44	 0.646475	 0.177711	 0.500000 
Si45	 0.658679	 0.248841	 0.500000 
Si46	 0.558087	 0.266100	 0.000000 
Si47	 0.511365	 0.396155	 0.000000 
Si48	 0.528624	 0.295562	 0.500000 
Si49	 0.540828	 0.366692	 0.500000 
Si50	 0.440236	 0.383951	 0.000000 
Si51	 0.393514	 0.514006	 0.000000 
Si52	 0.410773	 0.413414	 0.500000 
Si53	 0.422977	 0.484543	 0.500000 
Si54	 0.322384	 0.501802	 0.000000 
Si55	 0.275663	 0.631857	 0.000000 
Si56	 0.292922	 0.531265	 0.500000 
Si57	 0.305126	 0.602394	 0.500000 
Si58	 0.204533	 0.619653	 0.000000 
Si59	 0.157812	 0.749708	 0.000000 
Si60	 0.175071	 0.649116	 0.500000 
Si61	 0.187274	 0.720245	 0.500000 
Si62	 0.086682	 0.737504	 0.000000 
Si63	 0.747067	 0.160452	 0.000000 
Si64	 0.764326	 0.059860	 0.500000 
Si65	 0.776530	 0.130990	 0.500000 
Si66	 0.759271	 0.231582	 0.000000 
Si67	 0.712549	 0.361637	 0.000000 
Si68	 0.729808	 0.261045	 0.500000 
Si69	 0.742012	 0.332174	 0.500000 
Si70	 0.641420	 0.349433	 0.000000 
Si71	 0.594698	 0.479488	 0.000000 
Si72	 0.611957	 0.378896	 0.500000 
Si73	 0.624161	 0.450025	 0.500000 
Si74	 0.523569	 0.467284	 0.000000 
Si75	 0.476847	 0.597339	 0.000000 
Si76	 0.494106	 0.496747	 0.500000 
Si77	 0.506310	 0.567876	 0.500000 
Si78	 0.405718	 0.585135	 0.000000 
Si79	 0.358996	 0.715190	 0.000000 
Si80	 0.376255	 0.614598	 0.500000 
Si81	 0.388459	 0.685727	 0.500000 
Si82	 0.287867	 0.702986	 0.000000 
Si83	 0.241145	 0.833041	 0.000000 
Si84	 0.258404	 0.732449	 0.500000 
Si85	 0.270608	 0.803579	 0.500000 
Si86	 0.170016	 0.820837	 0.000000 
Si87	 0.830401	 0.243786	 0.000000 
Si88	 0.847660	 0.143193	 0.500000 
Si89	 0.859863	 0.214323	 0.500000 
Si90	 0.842604	 0.314915	 0.000000 
Si91	 0.795883	 0.444970	 0.000000 
Si92	 0.813142	 0.344378	 0.500000 
Si93	 0.825346	 0.415507	 0.500000 
Si94	 0.724753	 0.432766	 0.000000 
Si95	 0.678032	 0.562821	 0.000000 
Si96	 0.695291	 0.462229	 0.500000 
Si97	 0.707494	 0.533359	 0.500000 
Si98	 0.606902	 0.550617	 0.000000 
Si99	 0.560181	 0.680672	 0.000000 
Si100	 0.577439	 0.580080	 0.500000 
Si101	 0.589643	 0.651210	 0.500000 
Si102	 0.489051	 0.668469	 0.000000 
Si103	 0.442329	 0.798524	 0.000000 
Si104	 0.459588	 0.697931	 0.500000 
Si105	 0.471792	 0.769061	 0.500000 
Si106	 0.371200	 0.786320	 0.000000 
Si107	 0.324478	 0.916375	 0.000000 
Si108	 0.341737	 0.815782	 0.500000 
Si109	 0.353941	 0.886912	 0.500000 
Si110	 0.253349	 0.904171	 0.000000 
Si111	 0.913734	 0.327119	 0.000000 
Si112	 0.930993	 0.226527	 0.500000 
Si113	 0.943197	 0.297656	 0.500000 
Si114	 0.925938	 0.398249	 0.000000 
Si115	 0.879216	 0.528304	 0.000000 
Si116	 0.896475	 0.427711	 0.500000 
Si117	 0.908679	 0.498841	 0.500000 
Si118	 0.808087	 0.516100	 0.000000 
Si119	 0.761365	 0.646155	 0.000000 
Si120	 0.778624	 0.545562	 0.500000 
Si121	 0.790828	 0.616692	 0.500000 
Si122	 0.690236	 0.633951	 0.000000 
Si123	 0.643514	 0.764006	 0.000000 
Si124	 0.660773	 0.663414	 0.500000 
Si125	 0.672977	 0.734543	 0.500000 
Si126	 0.572384	 0.751802	 0.000000 
Si127	 0.525663	 0.881857	 0.000000 
Si128	 0.542922	 0.781265	 0.500000 
Si129	 0.555126	 0.852394	 0.500000 
Si130	 0.454533	 0.869653	 0.000000 
Si131	 0.407812	 0.999708	 0.000000 
Si132	 0.425071	 0.899116	 0.500000 
Si133	 0.437274	 0.970245	 0.500000 
Si134	 0.336682	 0.987504	 0.000000 
Si135	 0.997067	 0.410452	 0.000000 
Si136	 0.962549	 0.611637	 0.000000 
Si137	 0.979808	 0.511045	 0.500000 
Si138	 0.992012	 0.582174	 0.500000 
Si139	 0.891420	 0.599433	 0.000000 
Si140	 0.844698	 0.729488	 0.000000 
Si141	 0.861957	 0.628896	 0.500000 
Si142	 0.874161	 0.700025	 0.500000 
Si143	 0.773569	 0.717284	 0.000000 
Si144	 0.726847	 0.847339	 0.000000 
Si145	 0.744106	 0.746747	 0.500000 
Si146	 0.756310	 0.817876	 0.500000 
Si147	 0.655718	 0.835135	 0.000000 
Si148	 0.608996	 0.965190	 0.000000 
Si149	 0.626255	 0.864598	 0.500000 
Si150	 0.638459	 0.935727	 0.500000 
Si151	 0.537867	 0.952986	 0.000000 
Si152	 0.508404	 0.982449	 0.500000 
Si153	 0.379216	 0.028304	 0.000000 
Si154	 0.974753	 0.682766	 0.000000 
Si155	 0.261365	 0.146155	 0.000000 
Si156	 0.945291	 0.712229	 0.500000 
Si157	 0.290828	 0.116692	 0.500000 
Si158	 0.856902	 0.800617	 0.000000 
Si159	 0.143514	 0.264006	 0.000000 
Si160	 0.827439	 0.830080	 0.500000 
Si161	 0.172977	 0.234543	 0.500000 
Si162	 0.739051	 0.918469	 0.000000 
Si163	 0.025663	 0.381857	 0.000000 
Si164	 0.709588	 0.947931	 0.500000 
Si165	 0.055126	 0.352394	 0.500000 
#                 ---end-of-data-block---
