data_Si [110] nx 8 ny 6 nz 1
_cell_length_a               32.580000
_cell_length_b               32.580000
_cell_length_c               3.839590
_cell_angle_alpha          90.000000
_cell_angle_beta           90.000000
_cell_angle_gamma          90.000000
_symmetry_cell_setting          Triclinic
_symmetry_space_group_name_H-M 'P 1' 
loop_
_atom_site_label
_atom_site_fract_x
_atom_site_fract_y
_atom_site_fract_z
Si1	 0.566730	 0.070460	 0.000000 
Si2	 0.602815	 0.049626	 0.500000 
Si3	 0.501183	 0.040262	 0.000000 
Si4	 0.422393	 0.153793	 0.000000 
Si5	 0.465099	 0.061095	 0.500000 
Si6	 0.458477	 0.132960	 0.500000 
Si7	 0.356846	 0.123595	 0.000000 
Si8	 0.278055	 0.237126	 0.000000 
Si9	 0.320761	 0.144429	 0.500000 
Si10	 0.314140	 0.216293	 0.500000 
Si11	 0.212508	 0.206929	 0.000000 
Si12	 0.133718	 0.320460	 0.000000 
Si13	 0.176424	 0.227762	 0.500000 
Si14	 0.169802	 0.299626	 0.500000 
Si15	 0.068170	 0.290262	 0.000000 
Si16	 0.032086	 0.311095	 0.500000 
Si17	 0.025464	 0.382960	 0.500000 
Si18	 0.704446	 0.058991	 0.000000 
Si19	 0.625656	 0.172522	 0.000000 
Si20	 0.668362	 0.079824	 0.500000 
Si21	 0.661740	 0.151688	 0.500000 
Si22	 0.560109	 0.142324	 0.000000 
Si23	 0.481318	 0.255855	 0.000000 
Si24	 0.524024	 0.163157	 0.500000 
Si25	 0.517403	 0.235022	 0.500000 
Si26	 0.415771	 0.225657	 0.000000 
Si27	 0.336981	 0.339188	 0.000000 
Si28	 0.379687	 0.246491	 0.500000 
Si29	 0.373065	 0.318355	 0.500000 
Si30	 0.271434	 0.308991	 0.000000 
Si31	 0.192643	 0.422522	 0.000000 
Si32	 0.235349	 0.329824	 0.500000 
Si33	 0.228728	 0.401688	 0.500000 
Si34	 0.127096	 0.392324	 0.000000 
Si35	 0.048306	 0.505855	 0.000000 
Si36	 0.091012	 0.413157	 0.500000 
Si37	 0.084390	 0.485022	 0.500000 
Si38	 0.769993	 0.089188	 0.000000 
Si39	 0.806078	 0.068355	 0.500000 
Si40	 0.763372	 0.161053	 0.000000 
Si41	 0.684581	 0.274584	 0.000000 
Si42	 0.727287	 0.181886	 0.500000 
Si43	 0.720666	 0.253750	 0.500000 
Si44	 0.619034	 0.244386	 0.000000 
Si45	 0.540244	 0.357917	 0.000000 
Si46	 0.582950	 0.265219	 0.500000 
Si47	 0.576328	 0.337084	 0.500000 
Si48	 0.474697	 0.327719	 0.000000 
Si49	 0.395906	 0.441250	 0.000000 
Si50	 0.438612	 0.348553	 0.500000 
Si51	 0.431991	 0.420417	 0.500000 
Si52	 0.330359	 0.411053	 0.000000 
Si53	 0.251569	 0.524584	 0.000000 
Si54	 0.294275	 0.431886	 0.500000 
Si55	 0.287653	 0.503750	 0.500000 
Si56	 0.186022	 0.494386	 0.000000 
Si57	 0.107231	 0.607917	 0.000000 
Si58	 0.149937	 0.515219	 0.500000 
Si59	 0.143316	 0.587084	 0.500000 
Si60	 0.041684	 0.577719	 0.000000 
Si61	 0.828919	 0.191250	 0.000000 
Si62	 0.005600	 0.598553	 0.500000 
Si63	 0.865003	 0.170417	 0.500000 
Si64	 0.822297	 0.263115	 0.000000 
Si65	 0.743507	 0.376646	 0.000000 
Si66	 0.786213	 0.283948	 0.500000 
Si67	 0.779591	 0.355813	 0.500000 
Si68	 0.677960	 0.346448	 0.000000 
Si69	 0.599169	 0.459979	 0.000000 
Si70	 0.641875	 0.367282	 0.500000 
Si71	 0.635254	 0.439146	 0.500000 
Si72	 0.533622	 0.429782	 0.000000 
Si73	 0.454832	 0.543313	 0.000000 
Si74	 0.497538	 0.450615	 0.500000 
Si75	 0.490916	 0.522479	 0.500000 
Si76	 0.389285	 0.513115	 0.000000 
Si77	 0.310494	 0.626646	 0.000000 
Si78	 0.353200	 0.533948	 0.500000 
Si79	 0.346579	 0.605813	 0.500000 
Si80	 0.244947	 0.596448	 0.000000 
Si81	 0.166157	 0.709979	 0.000000 
Si82	 0.208863	 0.617282	 0.500000 
Si83	 0.202241	 0.689146	 0.500000 
Si84	 0.100610	 0.679782	 0.000000 
Si85	 0.887845	 0.293313	 0.000000 
Si86	 0.064525	 0.700615	 0.500000 
Si87	 0.923929	 0.272479	 0.500000 
Si88	 0.881223	 0.365177	 0.000000 
Si89	 0.802433	 0.478708	 0.000000 
Si90	 0.845139	 0.386010	 0.500000 
Si91	 0.838517	 0.457875	 0.500000 
Si92	 0.736885	 0.448510	 0.000000 
Si93	 0.658095	 0.562041	 0.000000 
Si94	 0.700801	 0.469344	 0.500000 
Si95	 0.694179	 0.541208	 0.500000 
Si96	 0.592548	 0.531844	 0.000000 
Si97	 0.513757	 0.645375	 0.000000 
Si98	 0.556463	 0.552677	 0.500000 
Si99	 0.549842	 0.624541	 0.500000 
Si100	 0.448210	 0.615177	 0.000000 
Si101	 0.369420	 0.728708	 0.000000 
Si102	 0.412126	 0.636010	 0.500000 
Si103	 0.405504	 0.707875	 0.500000 
Si104	 0.303873	 0.698510	 0.000000 
Si105	 0.225082	 0.812041	 0.000000 
Si106	 0.267788	 0.719344	 0.500000 
Si107	 0.261167	 0.791208	 0.500000 
Si108	 0.159535	 0.781844	 0.000000 
Si109	 0.946770	 0.395375	 0.000000 
Si110	 0.123451	 0.802677	 0.500000 
Si111	 0.982855	 0.374541	 0.500000 
Si112	 0.940149	 0.467239	 0.000000 
Si113	 0.861358	 0.580770	 0.000000 
Si114	 0.904064	 0.488072	 0.500000 
Si115	 0.897443	 0.559937	 0.500000 
Si116	 0.795811	 0.550572	 0.000000 
Si117	 0.717021	 0.664103	 0.000000 
Si118	 0.759727	 0.571406	 0.500000 
Si119	 0.753105	 0.643270	 0.500000 
Si120	 0.651473	 0.633906	 0.000000 
Si121	 0.572683	 0.747437	 0.000000 
Si122	 0.615389	 0.654739	 0.500000 
Si123	 0.608767	 0.726603	 0.500000 
Si124	 0.507136	 0.717239	 0.000000 
Si125	 0.428345	 0.830770	 0.000000 
Si126	 0.471051	 0.738072	 0.500000 
Si127	 0.464430	 0.809937	 0.500000 
Si128	 0.362798	 0.800572	 0.000000 
Si129	 0.284008	 0.914103	 0.000000 
Si130	 0.326714	 0.821406	 0.500000 
Si131	 0.320092	 0.893270	 0.500000 
Si132	 0.218461	 0.883906	 0.000000 
Si133	 0.182376	 0.904739	 0.500000 
Si134	 0.999074	 0.569301	 0.000000 
Si135	 0.920284	 0.682832	 0.000000 
Si136	 0.962990	 0.590134	 0.500000 
Si137	 0.956368	 0.661999	 0.500000 
Si138	 0.854737	 0.652634	 0.000000 
Si139	 0.775946	 0.766165	 0.000000 
Si140	 0.818652	 0.673468	 0.500000 
Si141	 0.812031	 0.745332	 0.500000 
Si142	 0.710399	 0.735968	 0.000000 
Si143	 0.631609	 0.849499	 0.000000 
Si144	 0.674315	 0.756801	 0.500000 
Si145	 0.667693	 0.828665	 0.500000 
Si146	 0.566061	 0.819301	 0.000000 
Si147	 0.487271	 0.932832	 0.000000 
Si148	 0.529977	 0.840134	 0.500000 
Si149	 0.523355	 0.911999	 0.500000 
Si150	 0.421724	 0.902634	 0.000000 
Si151	 0.385639	 0.923468	 0.500000 
Si152	 0.379018	 0.995332	 0.500000 
Si153	 0.277386	 0.985968	 0.000000 
Si154	 0.913662	 0.754696	 0.000000 
Si155	 0.363467	 0.051731	 0.000000 
Si156	 0.877578	 0.775530	 0.500000 
Si157	 0.399552	 0.030898	 0.500000 
Si158	 0.769325	 0.838030	 0.000000 
Si159	 0.219130	 0.135064	 0.000000 
Si160	 0.733240	 0.858863	 0.500000 
Si161	 0.255214	 0.114231	 0.500000 
Si162	 0.624987	 0.921363	 0.000000 
Si163	 0.074792	 0.218398	 0.000000 
Si164	 0.588903	 0.942196	 0.500000 
Si165	 0.110876	 0.197564	 0.500000 
#                 ---end-of-data-block---
