data_Si [110] nx 8 ny 6 nz 1
_cell_length_a               32.580000
_cell_length_b               32.580000
_cell_length_c               3.839590
_cell_angle_alpha          90.000000
_cell_angle_beta           90.000000
_cell_angle_gamma          90.000000
_symmetry_cell_setting          Triclinic
_symmetry_space_group_name_H-M 'P 1' 
loop_
_atom_site_label
_atom_site_fract_x
_atom_site_fract_y
_atom_site_fract_z
Si1	 0.559936	 0.001368	 0.000000 
Si2	 0.415598	 0.084702	 0.000000 
Si3	 0.451682	 0.063868	 0.500000 
Si4	 0.350051	 0.054504	 0.000000 
Si5	 0.271260	 0.168035	 0.000000 
Si6	 0.313966	 0.075337	 0.500000 
Si7	 0.307345	 0.147202	 0.500000 
Si8	 0.205713	 0.137837	 0.000000 
Si9	 0.126923	 0.251368	 0.000000 
Si10	 0.169629	 0.158671	 0.500000 
Si11	 0.163007	 0.230535	 0.500000 
Si12	 0.061376	 0.221171	 0.000000 
Si13	 0.025291	 0.242004	 0.500000 
Si14	 0.018670	 0.313868	 0.500000 
Si15	 0.618861	 0.103431	 0.000000 
Si16	 0.661567	 0.010733	 0.500000 
Si17	 0.654945	 0.082597	 0.500000 
Si18	 0.553314	 0.073233	 0.000000 
Si19	 0.474524	 0.186764	 0.000000 
Si20	 0.517230	 0.094066	 0.500000 
Si21	 0.510608	 0.165931	 0.500000 
Si22	 0.408976	 0.156566	 0.000000 
Si23	 0.330186	 0.270097	 0.000000 
Si24	 0.372892	 0.177400	 0.500000 
Si25	 0.366270	 0.249264	 0.500000 
Si26	 0.264639	 0.239900	 0.000000 
Si27	 0.185848	 0.353431	 0.000000 
Si28	 0.228554	 0.260733	 0.500000 
Si29	 0.221933	 0.332597	 0.500000 
Si30	 0.120301	 0.323233	 0.000000 
Si31	 0.041511	 0.436764	 0.000000 
Si32	 0.084217	 0.344066	 0.500000 
Si33	 0.077595	 0.415931	 0.500000 
Si34	 0.763199	 0.020097	 0.000000 
Si35	 0.756577	 0.091962	 0.000000 
Si36	 0.677787	 0.205493	 0.000000 
Si37	 0.720493	 0.112795	 0.500000 
Si38	 0.713871	 0.184659	 0.500000 
Si39	 0.612239	 0.175295	 0.000000 
Si40	 0.533449	 0.288826	 0.000000 
Si41	 0.576155	 0.196128	 0.500000 
Si42	 0.569533	 0.267993	 0.500000 
Si43	 0.467902	 0.258628	 0.000000 
Si44	 0.389112	 0.372159	 0.000000 
Si45	 0.431818	 0.279462	 0.500000 
Si46	 0.425196	 0.351326	 0.500000 
Si47	 0.323564	 0.341962	 0.000000 
Si48	 0.244774	 0.455493	 0.000000 
Si49	 0.287480	 0.362795	 0.500000 
Si50	 0.280858	 0.434659	 0.500000 
Si51	 0.179227	 0.425295	 0.000000 
Si52	 0.100436	 0.538826	 0.000000 
Si53	 0.143142	 0.446128	 0.500000 
Si54	 0.136521	 0.517993	 0.500000 
Si55	 0.034889	 0.508628	 0.000000 
Si56	 0.822124	 0.122159	 0.000000 
Si57	 0.815503	 0.194024	 0.000000 
Si58	 0.736712	 0.307555	 0.000000 
Si59	 0.779418	 0.214857	 0.500000 
Si60	 0.772797	 0.286721	 0.500000 
Si61	 0.671165	 0.277357	 0.000000 
Si62	 0.592375	 0.390888	 0.000000 
Si63	 0.635081	 0.298190	 0.500000 
Si64	 0.628459	 0.370055	 0.500000 
Si65	 0.526827	 0.360690	 0.000000 
Si66	 0.448037	 0.474221	 0.000000 
Si67	 0.490743	 0.381524	 0.500000 
Si68	 0.484121	 0.453388	 0.500000 
Si69	 0.382490	 0.444024	 0.000000 
Si70	 0.303700	 0.557555	 0.000000 
Si71	 0.346406	 0.464857	 0.500000 
Si72	 0.339784	 0.536721	 0.500000 
Si73	 0.238152	 0.527357	 0.000000 
Si74	 0.159362	 0.640888	 0.000000 
Si75	 0.202068	 0.548190	 0.500000 
Si76	 0.195446	 0.620055	 0.500000 
Si77	 0.093815	 0.610690	 0.000000 
Si78	 0.881050	 0.224221	 0.000000 
Si79	 0.057730	 0.631524	 0.500000 
Si80	 0.051109	 0.703388	 0.500000 
Si81	 0.874428	 0.296086	 0.000000 
Si82	 0.795638	 0.409617	 0.000000 
Si83	 0.838344	 0.316919	 0.500000 
Si84	 0.831722	 0.388783	 0.500000 
Si85	 0.730091	 0.379419	 0.000000 
Si86	 0.651300	 0.492950	 0.000000 
Si87	 0.694006	 0.400252	 0.500000 
Si88	 0.687385	 0.472117	 0.500000 
Si89	 0.585753	 0.462752	 0.000000 
Si90	 0.506963	 0.576283	 0.000000 
Si91	 0.549669	 0.483586	 0.500000 
Si92	 0.543047	 0.555450	 0.500000 
Si93	 0.441415	 0.546086	 0.000000 
Si94	 0.362625	 0.659617	 0.000000 
Si95	 0.405331	 0.566919	 0.500000 
Si96	 0.398709	 0.638783	 0.500000 
Si97	 0.297078	 0.629419	 0.000000 
Si98	 0.218288	 0.742950	 0.000000 
Si99	 0.260994	 0.650252	 0.500000 
Si100	 0.254372	 0.722117	 0.500000 
Si101	 0.152740	 0.712752	 0.000000 
Si102	 0.939975	 0.326283	 0.000000 
Si103	 0.116656	 0.733586	 0.500000 
Si104	 0.110034	 0.805450	 0.500000 
Si105	 0.933354	 0.398148	 0.000000 
Si106	 0.854563	 0.511679	 0.000000 
Si107	 0.897269	 0.418981	 0.500000 
Si108	 0.890648	 0.490846	 0.500000 
Si109	 0.789016	 0.481481	 0.000000 
Si110	 0.710226	 0.595012	 0.000000 
Si111	 0.752932	 0.502314	 0.500000 
Si112	 0.746310	 0.574179	 0.500000 
Si113	 0.644679	 0.564814	 0.000000 
Si114	 0.565888	 0.678346	 0.000000 
Si115	 0.608594	 0.585648	 0.500000 
Si116	 0.601973	 0.657512	 0.500000 
Si117	 0.500341	 0.648148	 0.000000 
Si118	 0.421551	 0.761679	 0.000000 
Si119	 0.464257	 0.668981	 0.500000 
Si120	 0.457635	 0.740846	 0.500000 
Si121	 0.356003	 0.731481	 0.000000 
Si122	 0.277213	 0.845012	 0.000000 
Si123	 0.319919	 0.752314	 0.500000 
Si124	 0.313297	 0.824179	 0.500000 
Si125	 0.211666	 0.814814	 0.000000 
Si126	 0.998901	 0.428346	 0.000000 
Si127	 0.175582	 0.835648	 0.500000 
Si128	 0.168960	 0.907512	 0.500000 
Si129	 0.992279	 0.500210	 0.000000 
Si130	 0.913489	 0.613741	 0.000000 
Si131	 0.956195	 0.521043	 0.500000 
Si132	 0.949573	 0.592908	 0.500000 
Si133	 0.847942	 0.583543	 0.000000 
Si134	 0.769151	 0.697074	 0.000000 
Si135	 0.811857	 0.604377	 0.500000 
Si136	 0.805236	 0.676241	 0.500000 
Si137	 0.703604	 0.666877	 0.000000 
Si138	 0.624814	 0.780408	 0.000000 
Si139	 0.667520	 0.687710	 0.500000 
Si140	 0.660898	 0.759574	 0.500000 
Si141	 0.559267	 0.750210	 0.000000 
Si142	 0.480476	 0.863741	 0.000000 
Si143	 0.523182	 0.771043	 0.500000 
Si144	 0.516561	 0.842908	 0.500000 
Si145	 0.414929	 0.833543	 0.000000 
Si146	 0.336139	 0.947074	 0.000000 
Si147	 0.378845	 0.854377	 0.500000 
Si148	 0.372223	 0.926241	 0.500000 
Si149	 0.270591	 0.916877	 0.000000 
Si150	 0.234507	 0.937710	 0.500000 
Si151	 0.972414	 0.715803	 0.000000 
Si152	 0.906867	 0.685605	 0.000000 
Si153	 0.828077	 0.799136	 0.000000 
Si154	 0.870783	 0.706439	 0.500000 
Si155	 0.864161	 0.778303	 0.500000 
Si156	 0.762530	 0.768939	 0.000000 
Si157	 0.683739	 0.882470	 0.000000 
Si158	 0.726445	 0.789772	 0.500000 
Si159	 0.719824	 0.861636	 0.500000 
Si160	 0.618192	 0.852272	 0.000000 
Si161	 0.539402	 0.965803	 0.000000 
Si162	 0.582108	 0.873105	 0.500000 
Si163	 0.575486	 0.944970	 0.500000 
Si164	 0.473855	 0.935605	 0.000000 
Si165	 0.437770	 0.956439	 0.500000 
#                 ---end-of-data-block---
