data_Si [110] nx 8 ny 6 nz 1
_cell_length_a               32.580000
_cell_length_b               32.580000
_cell_length_c               3.839590
_cell_angle_alpha          90.000000
_cell_angle_beta           90.000000
_cell_angle_gamma          90.000000
_symmetry_cell_setting          Triclinic
_symmetry_space_group_name_H-M 'P 1' 
loop_
_atom_site_label
_atom_site_fract_x
_atom_site_fract_y
_atom_site_fract_z
Si1	 0.432772	 0.075363	 0.000000 
Si2	 0.468857	 0.054530	 0.500000 
Si3	 0.367225	 0.045165	 0.000000 
Si4	 0.288435	 0.158696	 0.000000 
Si5	 0.331141	 0.065999	 0.500000 
Si6	 0.324519	 0.137863	 0.500000 
Si7	 0.222888	 0.128499	 0.000000 
Si8	 0.144097	 0.242030	 0.000000 
Si9	 0.186803	 0.149332	 0.500000 
Si10	 0.180182	 0.221196	 0.500000 
Si11	 0.078550	 0.211832	 0.000000 
Si12	 0.042466	 0.232665	 0.500000 
Si13	 0.035844	 0.304530	 0.500000 
Si14	 0.636035	 0.094092	 0.000000 
Si15	 0.678741	 0.001394	 0.500000 
Si16	 0.672120	 0.073258	 0.500000 
Si17	 0.570488	 0.063894	 0.000000 
Si18	 0.491698	 0.177425	 0.000000 
Si19	 0.534404	 0.084727	 0.500000 
Si20	 0.527782	 0.156592	 0.500000 
Si21	 0.426151	 0.147227	 0.000000 
Si22	 0.347360	 0.260758	 0.000000 
Si23	 0.390066	 0.168061	 0.500000 
Si24	 0.383445	 0.239925	 0.500000 
Si25	 0.281813	 0.230561	 0.000000 
Si26	 0.203023	 0.344092	 0.000000 
Si27	 0.245729	 0.251394	 0.500000 
Si28	 0.239107	 0.323258	 0.500000 
Si29	 0.137476	 0.313894	 0.000000 
Si30	 0.058685	 0.427425	 0.000000 
Si31	 0.101391	 0.334727	 0.500000 
Si32	 0.094770	 0.406592	 0.500000 
Si33	 0.780373	 0.010758	 0.000000 
Si34	 0.773751	 0.082623	 0.000000 
Si35	 0.694961	 0.196154	 0.000000 
Si36	 0.737667	 0.103456	 0.500000 
Si37	 0.731045	 0.175321	 0.500000 
Si38	 0.629414	 0.165956	 0.000000 
Si39	 0.550623	 0.279487	 0.000000 
Si40	 0.593329	 0.186789	 0.500000 
Si41	 0.586708	 0.258654	 0.500000 
Si42	 0.485076	 0.249289	 0.000000 
Si43	 0.406286	 0.362821	 0.000000 
Si44	 0.448992	 0.270123	 0.500000 
Si45	 0.442370	 0.341987	 0.500000 
Si46	 0.340739	 0.332623	 0.000000 
Si47	 0.261948	 0.446154	 0.000000 
Si48	 0.304654	 0.353456	 0.500000 
Si49	 0.298033	 0.425321	 0.500000 
Si50	 0.196401	 0.415956	 0.000000 
Si51	 0.117611	 0.529487	 0.000000 
Si52	 0.160317	 0.436789	 0.500000 
Si53	 0.153695	 0.508654	 0.500000 
Si54	 0.052064	 0.499289	 0.000000 
Si55	 0.839299	 0.112821	 0.000000 
Si56	 0.015979	 0.520123	 0.500000 
Si57	 0.009358	 0.591987	 0.500000 
Si58	 0.832677	 0.184685	 0.000000 
Si59	 0.753887	 0.298216	 0.000000 
Si60	 0.796593	 0.205518	 0.500000 
Si61	 0.789971	 0.277383	 0.500000 
Si62	 0.688339	 0.268018	 0.000000 
Si63	 0.609549	 0.381549	 0.000000 
Si64	 0.652255	 0.288852	 0.500000 
Si65	 0.645633	 0.360716	 0.500000 
Si66	 0.544002	 0.351352	 0.000000 
Si67	 0.465211	 0.464883	 0.000000 
Si68	 0.507917	 0.372185	 0.500000 
Si69	 0.501296	 0.444049	 0.500000 
Si70	 0.399664	 0.434685	 0.000000 
Si71	 0.320874	 0.548216	 0.000000 
Si72	 0.363580	 0.455518	 0.500000 
Si73	 0.356958	 0.527383	 0.500000 
Si74	 0.255327	 0.518018	 0.000000 
Si75	 0.176536	 0.631549	 0.000000 
Si76	 0.219242	 0.538852	 0.500000 
Si77	 0.212621	 0.610716	 0.500000 
Si78	 0.110989	 0.601352	 0.000000 
Si79	 0.898224	 0.214883	 0.000000 
Si80	 0.074905	 0.622185	 0.500000 
Si81	 0.068283	 0.694049	 0.500000 
Si82	 0.891603	 0.286747	 0.000000 
Si83	 0.812812	 0.400278	 0.000000 
Si84	 0.855518	 0.307580	 0.500000 
Si85	 0.848897	 0.379445	 0.500000 
Si86	 0.747265	 0.370080	 0.000000 
Si87	 0.668475	 0.483611	 0.000000 
Si88	 0.711181	 0.390914	 0.500000 
Si89	 0.704559	 0.462778	 0.500000 
Si90	 0.602927	 0.453414	 0.000000 
Si91	 0.524137	 0.566945	 0.000000 
Si92	 0.566843	 0.474247	 0.500000 
Si93	 0.560221	 0.546111	 0.500000 
Si94	 0.458590	 0.536747	 0.000000 
Si95	 0.379799	 0.650278	 0.000000 
Si96	 0.422505	 0.557580	 0.500000 
Si97	 0.415884	 0.629445	 0.500000 
Si98	 0.314252	 0.620080	 0.000000 
Si99	 0.235462	 0.733611	 0.000000 
Si100	 0.278168	 0.640914	 0.500000 
Si101	 0.271546	 0.712778	 0.500000 
Si102	 0.169915	 0.703414	 0.000000 
Si103	 0.957150	 0.316945	 0.000000 
Si104	 0.133830	 0.724247	 0.500000 
Si105	 0.127209	 0.796111	 0.500000 
Si106	 0.950528	 0.388809	 0.000000 
Si107	 0.871738	 0.502340	 0.000000 
Si108	 0.914444	 0.409642	 0.500000 
Si109	 0.907822	 0.481507	 0.500000 
Si110	 0.806191	 0.472142	 0.000000 
Si111	 0.727400	 0.585673	 0.000000 
Si112	 0.770106	 0.492976	 0.500000 
Si113	 0.763485	 0.564840	 0.500000 
Si114	 0.661853	 0.555476	 0.000000 
Si115	 0.583063	 0.669007	 0.000000 
Si116	 0.625769	 0.576309	 0.500000 
Si117	 0.619147	 0.648173	 0.500000 
Si118	 0.517515	 0.638809	 0.000000 
Si119	 0.438725	 0.752340	 0.000000 
Si120	 0.481431	 0.659642	 0.500000 
Si121	 0.474809	 0.731507	 0.500000 
Si122	 0.373178	 0.722142	 0.000000 
Si123	 0.294387	 0.835673	 0.000000 
Si124	 0.337093	 0.742976	 0.500000 
Si125	 0.330472	 0.814840	 0.500000 
Si126	 0.228840	 0.805476	 0.000000 
Si127	 0.192756	 0.826309	 0.500000 
Si128	 0.186134	 0.898173	 0.500000 
Si129	 0.930663	 0.604402	 0.000000 
Si130	 0.973369	 0.511704	 0.500000 
Si131	 0.966748	 0.583569	 0.500000 
Si132	 0.865116	 0.574204	 0.000000 
Si133	 0.786326	 0.687735	 0.000000 
Si134	 0.829032	 0.595038	 0.500000 
Si135	 0.822410	 0.666902	 0.500000 
Si136	 0.720779	 0.657538	 0.000000 
Si137	 0.641988	 0.771069	 0.000000 
Si138	 0.684694	 0.678371	 0.500000 
Si139	 0.678073	 0.750235	 0.500000 
Si140	 0.576441	 0.740871	 0.000000 
Si141	 0.497651	 0.854402	 0.000000 
Si142	 0.540357	 0.761704	 0.500000 
Si143	 0.533735	 0.833569	 0.500000 
Si144	 0.432103	 0.824204	 0.000000 
Si145	 0.353313	 0.937735	 0.000000 
Si146	 0.396019	 0.845038	 0.500000 
Si147	 0.389397	 0.916902	 0.500000 
Si148	 0.287766	 0.907538	 0.000000 
Si149	 0.251681	 0.928371	 0.500000 
Si150	 0.989589	 0.706464	 0.000000 
Si151	 0.924042	 0.676267	 0.000000 
Si152	 0.845251	 0.789798	 0.000000 
Si153	 0.887957	 0.697100	 0.500000 
Si154	 0.881336	 0.768964	 0.500000 
Si155	 0.779704	 0.759600	 0.000000 
Si156	 0.700914	 0.873131	 0.000000 
Si157	 0.743620	 0.780433	 0.500000 
Si158	 0.736998	 0.852298	 0.500000 
Si159	 0.635367	 0.842933	 0.000000 
Si160	 0.556576	 0.956464	 0.000000 
Si161	 0.599282	 0.863767	 0.500000 
Si162	 0.592661	 0.935631	 0.500000 
Si163	 0.491029	 0.926267	 0.000000 
Si164	 0.454945	 0.947100	 0.500000 
#                 ---end-of-data-block---
