data_STO [001]8x8x1
_cell_length_a               31.240000
_cell_length_b               31.240000
_cell_length_c               3.905000
_cell_angle_alpha          90.000000
_cell_angle_beta           90.000000
_cell_angle_gamma          90.000000
_symmetry_cell_setting          Triclinic
_symmetry_space_group_name_H-M 'P 1' 
loop_
_atom_site_label
_atom_site_fract_x
_atom_site_fract_y
_atom_site_fract_z
Sr1	 0.129629	 0.026495	 0.000000 
Ti2	 0.173823	 0.103041	 0.500000 
Sr3	 0.097276	 0.147235	 0.000000 
Ti4	 0.141470	 0.223782	 0.500000 
Sr5	 0.064924	 0.267976	 0.000000 
Ti6	 0.109118	 0.344523	 0.500000 
Sr7	 0.032571	 0.388717	 0.000000 
Ti8	 0.076766	 0.465263	 0.500000 
Sr9	 0.000219	 0.509457	 0.000000 
Ti10	 0.044413	 0.586004	 0.500000 
Ti11	 0.012061	 0.706745	 0.500000 
Ti12	 0.326916	 0.014653	 0.500000 
Sr13	 0.250369	 0.058847	 0.000000 
Ti14	 0.294563	 0.135393	 0.500000 
Sr15	 0.218017	 0.179588	 0.000000 
Ti16	 0.262211	 0.256134	 0.500000 
Sr17	 0.185664	 0.300328	 0.000000 
Ti18	 0.229859	 0.376875	 0.500000 
Sr19	 0.153312	 0.421069	 0.000000 
Ti20	 0.197506	 0.497616	 0.500000 
Sr21	 0.120960	 0.541810	 0.000000 
Ti22	 0.165154	 0.618356	 0.500000 
Sr23	 0.088607	 0.662551	 0.000000 
Ti24	 0.132802	 0.739097	 0.500000 
Sr25	 0.056255	 0.783291	 0.000000 
Ti26	 0.100449	 0.859838	 0.500000 
Ti27	 0.447657	 0.047005	 0.500000 
Sr28	 0.371110	 0.091199	 0.000000 
Ti29	 0.415304	 0.167746	 0.500000 
Sr30	 0.338758	 0.211940	 0.000000 
Ti31	 0.382952	 0.288487	 0.500000 
Sr32	 0.306405	 0.332681	 0.000000 
Ti33	 0.350599	 0.409227	 0.500000 
Sr34	 0.274053	 0.453421	 0.000000 
Ti35	 0.318247	 0.529968	 0.500000 
Sr36	 0.241700	 0.574162	 0.000000 
Ti37	 0.285895	 0.650709	 0.500000 
Sr38	 0.209348	 0.694903	 0.000000 
Ti39	 0.253542	 0.771449	 0.500000 
Sr40	 0.176996	 0.815644	 0.000000 
Ti41	 0.221190	 0.892190	 0.500000 
Sr42	 0.524203	 0.002811	 0.000000 
Ti43	 0.568397	 0.079357	 0.500000 
Sr44	 0.491851	 0.123552	 0.000000 
Ti45	 0.536045	 0.200098	 0.500000 
Sr46	 0.459498	 0.244292	 0.000000 
Ti47	 0.503692	 0.320839	 0.500000 
Sr48	 0.427146	 0.365033	 0.000000 
Ti49	 0.471340	 0.441580	 0.500000 
Sr50	 0.394794	 0.485774	 0.000000 
Ti51	 0.438988	 0.562320	 0.500000 
Sr52	 0.362441	 0.606515	 0.000000 
Ti53	 0.406635	 0.683061	 0.500000 
Sr54	 0.330089	 0.727255	 0.000000 
Ti55	 0.374283	 0.803802	 0.500000 
Sr56	 0.297736	 0.847996	 0.000000 
Ti57	 0.341931	 0.924543	 0.500000 
Sr58	 0.644944	 0.035163	 0.000000 
Ti59	 0.689138	 0.111710	 0.500000 
Sr60	 0.612591	 0.155904	 0.000000 
Ti61	 0.656786	 0.232451	 0.500000 
Sr62	 0.580239	 0.276645	 0.000000 
Ti63	 0.624433	 0.353191	 0.500000 
Sr64	 0.547887	 0.397385	 0.000000 
Ti65	 0.592081	 0.473932	 0.500000 
Sr66	 0.515534	 0.518126	 0.000000 
Ti67	 0.559728	 0.594673	 0.500000 
Sr68	 0.483182	 0.638867	 0.000000 
Ti69	 0.527376	 0.715414	 0.500000 
Sr70	 0.450830	 0.759608	 0.000000 
Ti71	 0.495024	 0.836154	 0.500000 
Sr72	 0.418477	 0.880348	 0.000000 
Ti73	 0.462671	 0.956895	 0.500000 
Sr74	 0.765685	 0.067516	 0.000000 
Ti75	 0.809879	 0.144062	 0.500000 
Sr76	 0.733332	 0.188256	 0.000000 
Ti77	 0.777526	 0.264803	 0.500000 
Sr78	 0.700980	 0.308997	 0.000000 
Ti79	 0.745174	 0.385544	 0.500000 
Sr80	 0.668627	 0.429738	 0.000000 
Ti81	 0.712822	 0.506284	 0.500000 
Sr82	 0.636275	 0.550479	 0.000000 
Ti83	 0.680469	 0.627025	 0.500000 
Sr84	 0.603923	 0.671219	 0.000000 
Ti85	 0.648117	 0.747766	 0.500000 
Sr86	 0.571570	 0.791960	 0.000000 
Ti87	 0.615764	 0.868507	 0.500000 
Sr88	 0.539218	 0.912701	 0.000000 
Ti89	 0.583412	 0.989247	 0.500000 
Sr90	 0.886425	 0.099868	 0.000000 
Ti91	 0.930619	 0.176415	 0.500000 
Sr92	 0.854073	 0.220609	 0.000000 
Ti93	 0.898267	 0.297155	 0.500000 
Sr94	 0.821720	 0.341350	 0.000000 
Ti95	 0.865915	 0.417896	 0.500000 
Sr96	 0.789368	 0.462090	 0.000000 
Ti97	 0.833562	 0.538637	 0.500000 
Sr98	 0.757016	 0.582831	 0.000000 
Ti99	 0.801210	 0.659378	 0.500000 
Sr100	 0.724663	 0.703572	 0.000000 
Ti101	 0.768858	 0.780118	 0.500000 
Sr102	 0.692311	 0.824312	 0.000000 
Ti103	 0.736505	 0.900859	 0.500000 
Sr104	 0.659959	 0.945053	 0.000000 
Sr105	 0.974814	 0.252961	 0.000000 
Sr106	 0.942461	 0.373702	 0.000000 
Ti107	 0.986655	 0.450248	 0.500000 
Sr108	 0.910109	 0.494443	 0.000000 
Ti109	 0.954303	 0.570989	 0.500000 
Sr110	 0.877756	 0.615183	 0.000000 
Ti111	 0.921951	 0.691730	 0.500000 
Sr112	 0.845404	 0.735924	 0.000000 
Ti113	 0.889598	 0.812471	 0.500000 
Sr114	 0.813052	 0.856665	 0.000000 
Ti115	 0.857246	 0.933211	 0.500000 
Sr116	 0.780699	 0.977406	 0.000000 
#                 ---end-of-data-block---
