data_STO [001]8x8x1
_cell_length_a               31.240000
_cell_length_b               31.240000
_cell_length_c               3.905000
_cell_angle_alpha          90.000000
_cell_angle_beta           90.000000
_cell_angle_gamma          90.000000
_symmetry_cell_setting          Triclinic
_symmetry_space_group_name_H-M 'P 1' 
loop_
_atom_site_label
_atom_site_fract_x
_atom_site_fract_y
_atom_site_fract_z
Ti1	 0.569129	 0.016878	 0.500000 
Ti2	 0.460875	 0.079378	 0.500000 
Sr3	 0.375499	 0.056501	 0.000000 
Ti4	 0.352622	 0.141878	 0.500000 
Sr5	 0.267246	 0.119001	 0.000000 
Ti6	 0.244369	 0.204378	 0.500000 
Sr7	 0.158992	 0.181501	 0.000000 
Ti8	 0.136116	 0.266878	 0.500000 
Sr9	 0.050739	 0.244001	 0.000000 
Ti10	 0.027863	 0.329378	 0.500000 
Ti11	 0.739882	 0.062631	 0.500000 
Sr12	 0.654505	 0.039755	 0.000000 
Ti13	 0.631629	 0.125131	 0.500000 
Sr14	 0.546252	 0.102255	 0.000000 
Ti15	 0.523375	 0.187631	 0.500000 
Sr16	 0.437999	 0.164755	 0.000000 
Ti17	 0.415122	 0.250131	 0.500000 
Sr18	 0.329746	 0.227255	 0.000000 
Ti19	 0.306869	 0.312631	 0.500000 
Sr20	 0.221492	 0.289755	 0.000000 
Ti21	 0.198616	 0.375131	 0.500000 
Sr22	 0.113239	 0.352255	 0.000000 
Ti23	 0.090363	 0.437631	 0.500000 
Sr24	 0.004986	 0.414755	 0.000000 
Sr25	 0.825258	 0.085508	 0.000000 
Ti26	 0.802382	 0.170884	 0.500000 
Sr27	 0.717005	 0.148008	 0.000000 
Ti28	 0.694129	 0.233384	 0.500000 
Sr29	 0.608752	 0.210508	 0.000000 
Ti30	 0.585875	 0.295884	 0.500000 
Sr31	 0.500499	 0.273008	 0.000000 
Ti32	 0.477622	 0.358384	 0.500000 
Sr33	 0.392246	 0.335508	 0.000000 
Ti34	 0.369369	 0.420884	 0.500000 
Sr35	 0.283992	 0.398008	 0.000000 
Ti36	 0.261116	 0.483384	 0.500000 
Sr37	 0.175739	 0.460508	 0.000000 
Ti38	 0.152863	 0.545884	 0.500000 
Sr39	 0.067486	 0.523008	 0.000000 
Ti40	 0.044610	 0.608384	 0.500000 
Sr41	 0.887758	 0.193761	 0.000000 
Ti42	 0.864882	 0.279138	 0.500000 
Sr43	 0.779505	 0.256261	 0.000000 
Ti44	 0.756629	 0.341638	 0.500000 
Sr45	 0.671252	 0.318761	 0.000000 
Ti46	 0.648375	 0.404138	 0.500000 
Sr47	 0.562999	 0.381261	 0.000000 
Ti48	 0.540122	 0.466638	 0.500000 
Sr49	 0.454746	 0.443761	 0.000000 
Ti50	 0.431869	 0.529138	 0.500000 
Sr51	 0.346492	 0.506261	 0.000000 
Ti52	 0.323616	 0.591638	 0.500000 
Sr53	 0.238239	 0.568761	 0.000000 
Ti54	 0.215363	 0.654138	 0.500000 
Sr55	 0.129986	 0.631261	 0.000000 
Ti56	 0.107110	 0.716638	 0.500000 
Sr57	 0.950258	 0.302014	 0.000000 
Ti58	 0.927382	 0.387391	 0.500000 
Sr59	 0.842005	 0.364514	 0.000000 
Ti60	 0.819129	 0.449891	 0.500000 
Sr61	 0.733752	 0.427014	 0.000000 
Ti62	 0.710875	 0.512391	 0.500000 
Sr63	 0.625499	 0.489514	 0.000000 
Ti64	 0.602622	 0.574891	 0.500000 
Sr65	 0.517246	 0.552014	 0.000000 
Ti66	 0.494369	 0.637391	 0.500000 
Sr67	 0.408992	 0.614514	 0.000000 
Ti68	 0.386116	 0.699891	 0.500000 
Sr69	 0.300739	 0.677014	 0.000000 
Ti70	 0.277863	 0.762391	 0.500000 
Sr71	 0.192486	 0.739514	 0.000000 
Ti72	 0.169610	 0.824891	 0.500000 
Ti73	 0.989882	 0.495644	 0.500000 
Sr74	 0.904505	 0.472767	 0.000000 
Ti75	 0.881629	 0.558144	 0.500000 
Sr76	 0.796252	 0.535267	 0.000000 
Ti77	 0.773375	 0.620644	 0.500000 
Sr78	 0.687999	 0.597767	 0.000000 
Ti79	 0.665122	 0.683144	 0.500000 
Sr80	 0.579746	 0.660267	 0.000000 
Ti81	 0.556869	 0.745644	 0.500000 
Sr82	 0.471492	 0.722767	 0.000000 
Ti83	 0.448616	 0.808144	 0.500000 
Sr84	 0.363239	 0.785267	 0.000000 
Ti85	 0.340363	 0.870644	 0.500000 
Sr86	 0.254986	 0.847767	 0.000000 
Ti87	 0.232110	 0.933144	 0.500000 
Sr88	 0.967005	 0.581020	 0.000000 
Ti89	 0.944129	 0.666397	 0.500000 
Sr90	 0.858752	 0.643520	 0.000000 
Ti91	 0.835875	 0.728897	 0.500000 
Sr92	 0.750499	 0.706020	 0.000000 
Ti93	 0.727622	 0.791397	 0.500000 
Sr94	 0.642246	 0.768520	 0.000000 
Ti95	 0.619369	 0.853897	 0.500000 
Sr96	 0.533992	 0.831020	 0.000000 
Ti97	 0.511116	 0.916397	 0.500000 
Sr98	 0.425739	 0.893520	 0.000000 
Ti99	 0.402863	 0.978897	 0.500000 
Sr100	 0.317486	 0.956020	 0.000000 
Sr101	 0.921252	 0.751774	 0.000000 
Ti102	 0.898375	 0.837150	 0.500000 
Sr103	 0.812999	 0.814274	 0.000000 
Ti104	 0.790122	 0.899650	 0.500000 
Sr105	 0.704746	 0.876774	 0.000000 
Ti106	 0.681869	 0.962150	 0.500000 
Sr107	 0.596492	 0.939274	 0.000000 
#                 ---end-of-data-block---
