data_Pt structure along [001] nx 5 ny 8 nz 1
_cell_length_a               31.240000
_cell_length_b               31.240000
_cell_length_c               5.543717
_cell_angle_alpha          90.000000
_cell_angle_beta           90.000000
_cell_angle_gamma          90.000000
_symmetry_cell_setting          Triclinic
_symmetry_space_group_name_H-M 'P 1' 
loop_
_atom_site_label
_atom_site_fract_x
_atom_site_fract_y
_atom_site_fract_z
Ti1	 0.312319	 0.099233	 0.000000 
Sr2	 0.413871	 0.061739	 0.000000 
Ti3	 0.397695	 0.122110	 0.500000 
Sr4	 0.328495	 0.038863	 0.500000 
Ti5	 0.279966	 0.219974	 0.000000 
Sr6	 0.381519	 0.182480	 0.000000 
Ti7	 0.365343	 0.242850	 0.500000 
Sr8	 0.296142	 0.159603	 0.500000 
Ti9	 0.247614	 0.340714	 0.000000 
Sr10	 0.349167	 0.303221	 0.000000 
Ti11	 0.332990	 0.363591	 0.500000 
Sr12	 0.263790	 0.280344	 0.500000 
Ti13	 0.215261	 0.461455	 0.000000 
Sr14	 0.316814	 0.423961	 0.000000 
Ti15	 0.300638	 0.484332	 0.500000 
Sr16	 0.231438	 0.401085	 0.500000 
Ti17	 0.182909	 0.582196	 0.000000 
Sr18	 0.284462	 0.544702	 0.000000 
Ti19	 0.268286	 0.605073	 0.500000 
Sr20	 0.199085	 0.521826	 0.500000 
Ti21	 0.150557	 0.702937	 0.000000 
Sr22	 0.252109	 0.665443	 0.000000 
Ti23	 0.235933	 0.725813	 0.500000 
Sr24	 0.166733	 0.642566	 0.500000 
Ti25	 0.118204	 0.823677	 0.000000 
Sr26	 0.219757	 0.786184	 0.000000 
Ti27	 0.203581	 0.846554	 0.500000 
Sr28	 0.134380	 0.763307	 0.500000 
Sr29	 0.187405	 0.906924	 0.000000 
Ti30	 0.430048	 0.001369	 0.500000 
Sr31	 0.102028	 0.884048	 0.500000 
Ti32	 0.483072	 0.144986	 0.000000 
Sr33	 0.584624	 0.107492	 0.000000 
Ti34	 0.568448	 0.167863	 0.500000 
Sr35	 0.499248	 0.084616	 0.500000 
Ti36	 0.450719	 0.265727	 0.000000 
Sr37	 0.552272	 0.228233	 0.000000 
Ti38	 0.536096	 0.288604	 0.500000 
Sr39	 0.466896	 0.205357	 0.500000 
Ti40	 0.418367	 0.386468	 0.000000 
Sr41	 0.519920	 0.348974	 0.000000 
Ti42	 0.503744	 0.409344	 0.500000 
Sr43	 0.434543	 0.326097	 0.500000 
Ti44	 0.386015	 0.507208	 0.000000 
Sr45	 0.487567	 0.469715	 0.000000 
Ti46	 0.471391	 0.530085	 0.500000 
Sr47	 0.402191	 0.446838	 0.500000 
Ti48	 0.353662	 0.627949	 0.000000 
Sr49	 0.455215	 0.590455	 0.000000 
Ti50	 0.439039	 0.650826	 0.500000 
Sr51	 0.369838	 0.567579	 0.500000 
Ti52	 0.321310	 0.748690	 0.000000 
Sr53	 0.422863	 0.711196	 0.000000 
Ti54	 0.406686	 0.771566	 0.500000 
Sr55	 0.337486	 0.688319	 0.500000 
Ti56	 0.288957	 0.869431	 0.000000 
Sr57	 0.390510	 0.831937	 0.000000 
Ti58	 0.374334	 0.892307	 0.500000 
Sr59	 0.305134	 0.809060	 0.500000 
Ti60	 0.515424	 0.024245	 0.000000 
Sr61	 0.358158	 0.952678	 0.000000 
Ti62	 0.600801	 0.047122	 0.500000 
Sr63	 0.272781	 0.929801	 0.500000 
Ti64	 0.653825	 0.190739	 0.000000 
Sr65	 0.755378	 0.153246	 0.000000 
Ti66	 0.739201	 0.213616	 0.500000 
Sr67	 0.670001	 0.130369	 0.500000 
Ti68	 0.621473	 0.311480	 0.000000 
Sr69	 0.723025	 0.273986	 0.000000 
Ti70	 0.706849	 0.334357	 0.500000 
Sr71	 0.637649	 0.251110	 0.500000 
Ti72	 0.589120	 0.432221	 0.000000 
Sr73	 0.690673	 0.394727	 0.000000 
Ti74	 0.674497	 0.455097	 0.500000 
Sr75	 0.605296	 0.371850	 0.500000 
Ti76	 0.556768	 0.552962	 0.000000 
Sr77	 0.658321	 0.515468	 0.000000 
Ti78	 0.642144	 0.575838	 0.500000 
Sr79	 0.572944	 0.492591	 0.500000 
Ti80	 0.524415	 0.673702	 0.000000 
Sr81	 0.625968	 0.636209	 0.000000 
Ti82	 0.609792	 0.696579	 0.500000 
Sr83	 0.540592	 0.613332	 0.500000 
Ti84	 0.492063	 0.794443	 0.000000 
Sr85	 0.593616	 0.756949	 0.000000 
Ti86	 0.577440	 0.817320	 0.500000 
Sr87	 0.508239	 0.734073	 0.500000 
Ti88	 0.459711	 0.915184	 0.000000 
Sr89	 0.561263	 0.877690	 0.000000 
Ti90	 0.545087	 0.938060	 0.500000 
Sr91	 0.475887	 0.854813	 0.500000 
Ti92	 0.686177	 0.069999	 0.000000 
Sr93	 0.528911	 0.998431	 0.000000 
Ti94	 0.771554	 0.092875	 0.500000 
Sr95	 0.443534	 0.975554	 0.500000 
Ti96	 0.824578	 0.236493	 0.000000 
Sr97	 0.926131	 0.198999	 0.000000 
Ti98	 0.909955	 0.259369	 0.500000 
Sr99	 0.840754	 0.176122	 0.500000 
Ti100	 0.792226	 0.357233	 0.000000 
Sr101	 0.893778	 0.319740	 0.000000 
Ti102	 0.877602	 0.380110	 0.500000 
Sr103	 0.808402	 0.296863	 0.500000 
Ti104	 0.759873	 0.477974	 0.000000 
Sr105	 0.861426	 0.440480	 0.000000 
Ti106	 0.845250	 0.500851	 0.500000 
Sr107	 0.776049	 0.417604	 0.500000 
Ti108	 0.727521	 0.598715	 0.000000 
Sr109	 0.829074	 0.561221	 0.000000 
Ti110	 0.812898	 0.621591	 0.500000 
Sr111	 0.743697	 0.538344	 0.500000 
Ti112	 0.695169	 0.719455	 0.000000 
Sr113	 0.796721	 0.681962	 0.000000 
Ti114	 0.780545	 0.742332	 0.500000 
Sr115	 0.711345	 0.659085	 0.500000 
Ti116	 0.662816	 0.840196	 0.000000 
Sr117	 0.764369	 0.802702	 0.000000 
Ti118	 0.748193	 0.863073	 0.500000 
Sr119	 0.678992	 0.779826	 0.500000 
Ti120	 0.630464	 0.960937	 0.000000 
Sr121	 0.732017	 0.923443	 0.000000 
Ti122	 0.715840	 0.983814	 0.500000 
Sr123	 0.646640	 0.900567	 0.500000 
Ti124	 0.856930	 0.115752	 0.000000 
Ti125	 0.942307	 0.138628	 0.500000 
Ti126	 0.995331	 0.282246	 0.000000 
Sr127	 0.243118	 0.015986	 0.000000 
Ti128	 0.226942	 0.076356	 0.500000 
Ti129	 0.962979	 0.402986	 0.000000 
Sr130	 0.210766	 0.136727	 0.000000 
Ti131	 0.194590	 0.197097	 0.500000 
Sr132	 0.979155	 0.342616	 0.500000 
Ti133	 0.930626	 0.523727	 0.000000 
Sr134	 0.178413	 0.257468	 0.000000 
Ti135	 0.162237	 0.317838	 0.500000 
Sr136	 0.946803	 0.463357	 0.500000 
Ti137	 0.898274	 0.644468	 0.000000 
Sr138	 0.146061	 0.378208	 0.000000 
Ti139	 0.129885	 0.438579	 0.500000 
Sr140	 0.914450	 0.584098	 0.500000 
Ti141	 0.865922	 0.765209	 0.000000 
Sr142	 0.113709	 0.498949	 0.000000 
Ti143	 0.097532	 0.559319	 0.500000 
Sr144	 0.882098	 0.704838	 0.500000 
Ti145	 0.833569	 0.885949	 0.000000 
Sr146	 0.081356	 0.619690	 0.000000 
Ti147	 0.065180	 0.680060	 0.500000 
Sr148	 0.849746	 0.825579	 0.500000 
Sr149	 0.049004	 0.740430	 0.000000 
Ti150	 0.032828	 0.800801	 0.500000 
Sr151	 0.817393	 0.946320	 0.500000 
Sr152	 0.016651	 0.861171	 0.000000 
#                 ---end-of-data-block---
