data_Pt structure along [001] nx 5 ny 8 nz 1
_cell_length_a               31.240000
_cell_length_b               31.240000
_cell_length_c               5.543717
_cell_angle_alpha          90.000000
_cell_angle_beta           90.000000
_cell_angle_gamma          90.000000
_symmetry_cell_setting          Triclinic
_symmetry_space_group_name_H-M 'P 1' 
loop_
_atom_site_label
_atom_site_fract_x
_atom_site_fract_y
_atom_site_fract_z
Ti1	 0.284465	 0.054949	 0.000000 
Sr2	 0.386017	 0.017456	 0.000000 
Ti3	 0.369841	 0.077826	 0.500000 
Ti4	 0.252112	 0.175690	 0.000000 
Sr5	 0.353665	 0.138196	 0.000000 
Ti6	 0.337489	 0.198567	 0.500000 
Sr7	 0.268288	 0.115320	 0.500000 
Ti8	 0.219760	 0.296431	 0.000000 
Sr9	 0.321313	 0.258937	 0.000000 
Ti10	 0.305136	 0.319307	 0.500000 
Sr11	 0.235936	 0.236060	 0.500000 
Ti12	 0.187407	 0.417172	 0.000000 
Sr13	 0.288960	 0.379678	 0.000000 
Ti14	 0.272784	 0.440048	 0.500000 
Sr15	 0.203584	 0.356801	 0.500000 
Ti16	 0.155055	 0.537912	 0.000000 
Sr17	 0.256608	 0.500419	 0.000000 
Ti18	 0.240432	 0.560789	 0.500000 
Sr19	 0.171231	 0.477542	 0.500000 
Ti20	 0.122703	 0.658653	 0.000000 
Sr21	 0.224256	 0.621159	 0.000000 
Ti22	 0.208079	 0.681530	 0.500000 
Sr23	 0.138879	 0.598283	 0.500000 
Ti24	 0.090350	 0.779394	 0.000000 
Sr25	 0.191903	 0.741900	 0.000000 
Ti26	 0.175727	 0.802270	 0.500000 
Sr27	 0.106527	 0.719023	 0.500000 
Sr28	 0.159551	 0.862641	 0.000000 
Sr29	 0.074174	 0.839764	 0.500000 
Ti30	 0.455218	 0.100703	 0.000000 
Sr31	 0.556771	 0.063209	 0.000000 
Ti32	 0.540594	 0.123579	 0.500000 
Sr33	 0.471394	 0.040332	 0.500000 
Ti34	 0.422865	 0.221443	 0.000000 
Sr35	 0.524418	 0.183950	 0.000000 
Ti36	 0.508242	 0.244320	 0.500000 
Sr37	 0.439042	 0.161073	 0.500000 
Ti38	 0.390513	 0.342184	 0.000000 
Sr39	 0.492066	 0.304690	 0.000000 
Ti40	 0.475890	 0.365061	 0.500000 
Sr41	 0.406689	 0.281814	 0.500000 
Ti42	 0.358161	 0.462925	 0.000000 
Sr43	 0.459713	 0.425431	 0.000000 
Ti44	 0.443537	 0.485801	 0.500000 
Sr45	 0.374337	 0.402554	 0.500000 
Ti46	 0.325808	 0.583665	 0.000000 
Sr47	 0.427361	 0.546172	 0.000000 
Ti48	 0.411185	 0.606542	 0.500000 
Sr49	 0.341984	 0.523295	 0.500000 
Ti50	 0.293456	 0.704406	 0.000000 
Sr51	 0.395009	 0.666912	 0.000000 
Ti52	 0.378832	 0.727283	 0.500000 
Sr53	 0.309632	 0.644036	 0.500000 
Ti54	 0.261104	 0.825147	 0.000000 
Sr55	 0.362656	 0.787653	 0.000000 
Ti56	 0.346480	 0.848024	 0.500000 
Sr57	 0.277280	 0.764777	 0.500000 
Sr58	 0.330304	 0.908394	 0.000000 
Ti59	 0.572947	 0.002838	 0.500000 
Sr60	 0.244927	 0.885517	 0.500000 
Ti61	 0.625971	 0.146456	 0.000000 
Sr62	 0.727524	 0.108962	 0.000000 
Ti63	 0.711348	 0.169332	 0.500000 
Sr64	 0.642147	 0.086085	 0.500000 
Ti65	 0.593619	 0.267196	 0.000000 
Sr66	 0.695171	 0.229703	 0.000000 
Ti67	 0.678995	 0.290073	 0.500000 
Sr68	 0.609795	 0.206826	 0.500000 
Ti69	 0.561266	 0.387937	 0.000000 
Sr70	 0.662819	 0.350443	 0.000000 
Ti71	 0.646643	 0.410814	 0.500000 
Sr72	 0.577442	 0.327567	 0.500000 
Ti73	 0.528914	 0.508678	 0.000000 
Sr74	 0.630467	 0.471184	 0.000000 
Ti75	 0.614290	 0.531555	 0.500000 
Sr76	 0.545090	 0.448308	 0.500000 
Ti77	 0.496561	 0.629419	 0.000000 
Sr78	 0.598114	 0.591925	 0.000000 
Ti79	 0.581938	 0.652295	 0.500000 
Sr80	 0.512738	 0.569048	 0.500000 
Ti81	 0.464209	 0.750159	 0.000000 
Sr82	 0.565762	 0.712666	 0.000000 
Ti83	 0.549586	 0.773036	 0.500000 
Sr84	 0.480385	 0.689789	 0.500000 
Ti85	 0.431857	 0.870900	 0.000000 
Sr86	 0.533409	 0.833406	 0.000000 
Ti87	 0.517233	 0.893777	 0.500000 
Sr88	 0.448033	 0.810530	 0.500000 
Ti89	 0.658323	 0.025715	 0.000000 
Sr90	 0.501057	 0.954147	 0.000000 
Ti91	 0.743700	 0.048592	 0.500000 
Sr92	 0.415681	 0.931270	 0.500000 
Ti93	 0.796724	 0.192209	 0.000000 
Sr94	 0.898277	 0.154715	 0.000000 
Ti95	 0.882101	 0.215086	 0.500000 
Sr96	 0.812900	 0.131839	 0.500000 
Ti97	 0.764372	 0.312950	 0.000000 
Sr98	 0.865925	 0.275456	 0.000000 
Ti99	 0.849748	 0.335826	 0.500000 
Sr100	 0.780548	 0.252579	 0.500000 
Ti101	 0.732019	 0.433690	 0.000000 
Sr102	 0.833572	 0.396197	 0.000000 
Ti103	 0.817396	 0.456567	 0.500000 
Sr104	 0.748196	 0.373320	 0.500000 
Ti105	 0.699667	 0.554431	 0.000000 
Sr106	 0.801220	 0.516937	 0.000000 
Ti107	 0.785044	 0.577308	 0.500000 
Sr108	 0.715843	 0.494061	 0.500000 
Ti109	 0.667315	 0.675172	 0.000000 
Sr110	 0.768867	 0.637678	 0.000000 
Ti111	 0.752691	 0.698048	 0.500000 
Sr112	 0.683491	 0.614801	 0.500000 
Ti113	 0.634962	 0.795913	 0.000000 
Sr114	 0.736515	 0.758419	 0.000000 
Ti115	 0.720339	 0.818789	 0.500000 
Sr116	 0.651138	 0.735542	 0.500000 
Ti117	 0.602610	 0.916653	 0.000000 
Sr118	 0.704163	 0.879160	 0.000000 
Ti119	 0.687986	 0.939530	 0.500000 
Sr120	 0.618786	 0.856283	 0.500000 
Ti121	 0.829077	 0.071468	 0.000000 
Sr122	 0.671810	 0.999900	 0.000000 
Ti123	 0.914453	 0.094345	 0.500000 
Sr124	 0.586434	 0.977024	 0.500000 
Ti125	 0.967477	 0.237962	 0.000000 
Ti126	 0.199088	 0.032073	 0.500000 
Sr127	 0.983654	 0.177592	 0.500000 
Ti128	 0.935125	 0.358703	 0.000000 
Sr129	 0.182912	 0.092443	 0.000000 
Ti130	 0.166736	 0.152814	 0.500000 
Sr131	 0.951301	 0.298332	 0.500000 
Ti132	 0.902773	 0.479444	 0.000000 
Sr133	 0.150559	 0.213184	 0.000000 
Ti134	 0.134383	 0.273554	 0.500000 
Sr135	 0.918949	 0.419073	 0.500000 
Ti136	 0.870420	 0.600184	 0.000000 
Sr137	 0.118207	 0.333925	 0.000000 
Ti138	 0.102031	 0.394295	 0.500000 
Sr139	 0.886596	 0.539814	 0.500000 
Ti140	 0.838068	 0.720925	 0.000000 
Sr141	 0.085855	 0.454665	 0.000000 
Ti142	 0.069679	 0.515036	 0.500000 
Sr143	 0.854244	 0.660555	 0.500000 
Ti144	 0.805715	 0.841666	 0.000000 
Sr145	 0.053502	 0.575406	 0.000000 
Ti146	 0.037326	 0.635776	 0.500000 
Sr147	 0.821892	 0.781295	 0.500000 
Ti148	 0.773363	 0.962406	 0.000000 
Sr149	 0.021150	 0.696147	 0.000000 
Ti150	 0.004974	 0.756517	 0.500000 
Sr151	 0.789539	 0.902036	 0.500000 
Ti152	 0.999830	 0.117221	 0.000000 
#                 ---end-of-data-block---
