data_Pt structure along [001] nx 5 ny 8 nz 1
_cell_length_a               31.240000
_cell_length_b               31.240000
_cell_length_c               5.543717
_cell_angle_alpha          90.000000
_cell_angle_beta           90.000000
_cell_angle_gamma          90.000000
_symmetry_cell_setting          Triclinic
_symmetry_space_group_name_H-M 'P 1' 
loop_
_atom_site_label
_atom_site_fract_x
_atom_site_fract_y
_atom_site_fract_z
Ti1	 0.533821	 0.043484	 0.500000 
Ti2	 0.394774	 0.107543	 0.000000 
Sr3	 0.502571	 0.097611	 0.000000 
Ti4	 0.471321	 0.151737	 0.500000 
Sr5	 0.426024	 0.053417	 0.500000 
Ti6	 0.332274	 0.215796	 0.000000 
Sr7	 0.440071	 0.205864	 0.000000 
Ti8	 0.408821	 0.259991	 0.500000 
Sr9	 0.363524	 0.161670	 0.500000 
Ti10	 0.269774	 0.324050	 0.000000 
Sr11	 0.377571	 0.314117	 0.000000 
Ti12	 0.346321	 0.368244	 0.500000 
Sr13	 0.301024	 0.269923	 0.500000 
Ti14	 0.207274	 0.432303	 0.000000 
Sr15	 0.315071	 0.422370	 0.000000 
Ti16	 0.283821	 0.476497	 0.500000 
Sr17	 0.238524	 0.378176	 0.500000 
Ti18	 0.144774	 0.540556	 0.000000 
Sr19	 0.252571	 0.530624	 0.000000 
Ti20	 0.221321	 0.584750	 0.500000 
Sr21	 0.176024	 0.486429	 0.500000 
Ti22	 0.082274	 0.648809	 0.000000 
Sr23	 0.190071	 0.638877	 0.000000 
Ti24	 0.158821	 0.693003	 0.500000 
Sr25	 0.113524	 0.594683	 0.500000 
Ti26	 0.019774	 0.757062	 0.000000 
Sr27	 0.127571	 0.747130	 0.000000 
Ti28	 0.096321	 0.801256	 0.500000 
Sr29	 0.051024	 0.702936	 0.500000 
Ti30	 0.610367	 0.087678	 0.000000 
Sr31	 0.718164	 0.077746	 0.000000 
Ti32	 0.686914	 0.131873	 0.500000 
Sr33	 0.641617	 0.033552	 0.500000 
Ti34	 0.547867	 0.195932	 0.000000 
Sr35	 0.655664	 0.185999	 0.000000 
Ti36	 0.624414	 0.240126	 0.500000 
Sr37	 0.579117	 0.141805	 0.500000 
Ti38	 0.485367	 0.304185	 0.000000 
Sr39	 0.593164	 0.294252	 0.000000 
Ti40	 0.561914	 0.348379	 0.500000 
Sr41	 0.516617	 0.250058	 0.500000 
Ti42	 0.422867	 0.412438	 0.000000 
Sr43	 0.530664	 0.402506	 0.000000 
Ti44	 0.499414	 0.456632	 0.500000 
Sr45	 0.454117	 0.358311	 0.500000 
Ti46	 0.360367	 0.520691	 0.000000 
Sr47	 0.468164	 0.510759	 0.000000 
Ti48	 0.436914	 0.564885	 0.500000 
Sr49	 0.391617	 0.466565	 0.500000 
Ti50	 0.297867	 0.628944	 0.000000 
Sr51	 0.405664	 0.619012	 0.000000 
Ti52	 0.374414	 0.673138	 0.500000 
Sr53	 0.329117	 0.574818	 0.500000 
Ti54	 0.235367	 0.737197	 0.000000 
Sr55	 0.343164	 0.727265	 0.000000 
Ti56	 0.311914	 0.781392	 0.500000 
Sr57	 0.266617	 0.683071	 0.500000 
Ti58	 0.172867	 0.845451	 0.000000 
Sr59	 0.280664	 0.835518	 0.000000 
Ti60	 0.249414	 0.889645	 0.500000 
Sr61	 0.204117	 0.791324	 0.500000 
Ti62	 0.763460	 0.176067	 0.000000 
Sr63	 0.871257	 0.166134	 0.000000 
Ti64	 0.840007	 0.220261	 0.500000 
Sr65	 0.794710	 0.121940	 0.500000 
Ti66	 0.700960	 0.284320	 0.000000 
Sr67	 0.808757	 0.274388	 0.000000 
Ti68	 0.777507	 0.328514	 0.500000 
Sr69	 0.732210	 0.230193	 0.500000 
Ti70	 0.638460	 0.392573	 0.000000 
Sr71	 0.746257	 0.382641	 0.000000 
Ti72	 0.715007	 0.436767	 0.500000 
Sr73	 0.669710	 0.338447	 0.500000 
Ti74	 0.575960	 0.500826	 0.000000 
Sr75	 0.683757	 0.490894	 0.000000 
Ti76	 0.652507	 0.545020	 0.500000 
Sr77	 0.607210	 0.446700	 0.500000 
Ti78	 0.513460	 0.609079	 0.000000 
Sr79	 0.621257	 0.599147	 0.000000 
Ti80	 0.590007	 0.653274	 0.500000 
Sr81	 0.544710	 0.554953	 0.500000 
Ti82	 0.450960	 0.717333	 0.000000 
Sr83	 0.558757	 0.707400	 0.000000 
Ti84	 0.527507	 0.761527	 0.500000 
Sr85	 0.482210	 0.663206	 0.500000 
Ti86	 0.388460	 0.825586	 0.000000 
Sr87	 0.496257	 0.815653	 0.000000 
Ti88	 0.465007	 0.869780	 0.500000 
Sr89	 0.419710	 0.771459	 0.500000 
Ti90	 0.325960	 0.933839	 0.000000 
Sr91	 0.433757	 0.923907	 0.000000 
Ti92	 0.402507	 0.978033	 0.500000 
Sr93	 0.357210	 0.879712	 0.500000 
Ti94	 0.916553	 0.264455	 0.000000 
Ti95	 0.993100	 0.308649	 0.500000 
Sr96	 0.947803	 0.210329	 0.500000 
Ti97	 0.854053	 0.372708	 0.000000 
Sr98	 0.961850	 0.362776	 0.000000 
Ti99	 0.930600	 0.416902	 0.500000 
Sr100	 0.885303	 0.318582	 0.500000 
Ti101	 0.791553	 0.480961	 0.000000 
Sr102	 0.899350	 0.471029	 0.000000 
Ti103	 0.868100	 0.525156	 0.500000 
Sr104	 0.822803	 0.426835	 0.500000 
Ti105	 0.729053	 0.589215	 0.000000 
Sr106	 0.836850	 0.579282	 0.000000 
Ti107	 0.805600	 0.633409	 0.500000 
Sr108	 0.760303	 0.535088	 0.500000 
Ti109	 0.666553	 0.697468	 0.000000 
Sr110	 0.774350	 0.687535	 0.000000 
Ti111	 0.743100	 0.741662	 0.500000 
Sr112	 0.697803	 0.643341	 0.500000 
Ti113	 0.604053	 0.805721	 0.000000 
Sr114	 0.711850	 0.795789	 0.000000 
Ti115	 0.680600	 0.849915	 0.500000 
Sr116	 0.635303	 0.751594	 0.500000 
Ti117	 0.541553	 0.913974	 0.000000 
Sr118	 0.649350	 0.904042	 0.000000 
Ti119	 0.618100	 0.958168	 0.500000 
Sr120	 0.572803	 0.859848	 0.500000 
Sr121	 0.510303	 0.968101	 0.500000 
Sr122	 0.349477	 0.009222	 0.000000 
Ti123	 0.318227	 0.063349	 0.500000 
Ti124	 0.944646	 0.569350	 0.000000 
Sr125	 0.286977	 0.117476	 0.000000 
Ti126	 0.255727	 0.171602	 0.500000 
Sr127	 0.975896	 0.515223	 0.500000 
Ti128	 0.882146	 0.677603	 0.000000 
Sr129	 0.224477	 0.225729	 0.000000 
Ti130	 0.193227	 0.279855	 0.500000 
Sr131	 0.913396	 0.623476	 0.500000 
Ti132	 0.819646	 0.785856	 0.000000 
Sr133	 0.161977	 0.333982	 0.000000 
Ti134	 0.130727	 0.388109	 0.500000 
Sr135	 0.850896	 0.731730	 0.500000 
Ti136	 0.757146	 0.894109	 0.000000 
Sr137	 0.099477	 0.442235	 0.000000 
Ti138	 0.068227	 0.496362	 0.500000 
Sr139	 0.788396	 0.839983	 0.500000 
Sr140	 0.036977	 0.550488	 0.000000 
Ti141	 0.005727	 0.604615	 0.500000 
Sr142	 0.725896	 0.948236	 0.500000 
#                 ---end-of-data-block---
