data_Pt structure along [001] nx 5 ny 8 nz 1
_cell_length_a               31.240000
_cell_length_b               31.240000
_cell_length_c               5.543717
_cell_angle_alpha          90.000000
_cell_angle_beta           90.000000
_cell_angle_gamma          90.000000
_symmetry_cell_setting          Triclinic
_symmetry_space_group_name_H-M 'P 1' 
loop_
_atom_site_label
_atom_site_fract_x
_atom_site_fract_y
_atom_site_fract_z
Ti1	 0.387004	 0.009828	 0.500000 
Ti2	 0.247957	 0.073887	 0.000000 
Sr3	 0.355754	 0.063955	 0.000000 
Ti4	 0.324504	 0.118082	 0.500000 
Sr5	 0.279207	 0.019761	 0.500000 
Ti6	 0.185457	 0.182141	 0.000000 
Sr7	 0.293254	 0.172208	 0.000000 
Ti8	 0.262004	 0.226335	 0.500000 
Sr9	 0.216707	 0.128014	 0.500000 
Ti10	 0.122957	 0.290394	 0.000000 
Sr11	 0.230754	 0.280461	 0.000000 
Ti12	 0.199504	 0.334588	 0.500000 
Sr13	 0.154207	 0.236267	 0.500000 
Ti14	 0.060457	 0.398647	 0.000000 
Sr15	 0.168254	 0.388715	 0.000000 
Ti16	 0.137004	 0.442841	 0.500000 
Sr17	 0.091707	 0.344520	 0.500000 
Sr18	 0.105754	 0.496968	 0.000000 
Ti19	 0.074504	 0.551094	 0.500000 
Sr20	 0.029207	 0.452774	 0.500000 
Sr21	 0.043254	 0.605221	 0.000000 
Ti22	 0.012004	 0.659347	 0.500000 
Ti23	 0.463550	 0.054023	 0.000000 
Sr24	 0.571347	 0.044090	 0.000000 
Ti25	 0.540097	 0.098217	 0.500000 
Ti26	 0.401050	 0.162276	 0.000000 
Sr27	 0.508847	 0.152343	 0.000000 
Ti28	 0.477597	 0.206470	 0.500000 
Sr29	 0.432300	 0.108149	 0.500000 
Ti30	 0.338550	 0.270529	 0.000000 
Sr31	 0.446347	 0.260597	 0.000000 
Ti32	 0.415097	 0.314723	 0.500000 
Sr33	 0.369800	 0.216402	 0.500000 
Ti34	 0.276050	 0.378782	 0.000000 
Sr35	 0.383847	 0.368850	 0.000000 
Ti36	 0.352597	 0.422976	 0.500000 
Sr37	 0.307300	 0.324656	 0.500000 
Ti38	 0.213550	 0.487035	 0.000000 
Sr39	 0.321347	 0.477103	 0.000000 
Ti40	 0.290097	 0.531229	 0.500000 
Sr41	 0.244800	 0.432909	 0.500000 
Ti42	 0.151050	 0.595288	 0.000000 
Sr43	 0.258847	 0.585356	 0.000000 
Ti44	 0.227597	 0.639483	 0.500000 
Sr45	 0.182300	 0.541162	 0.500000 
Ti46	 0.088550	 0.703542	 0.000000 
Sr47	 0.196347	 0.693609	 0.000000 
Ti48	 0.165097	 0.747736	 0.500000 
Sr49	 0.119800	 0.649415	 0.500000 
Sr50	 0.133847	 0.801862	 0.000000 
Sr51	 0.057300	 0.757668	 0.500000 
Ti52	 0.616643	 0.142411	 0.000000 
Sr53	 0.724440	 0.132479	 0.000000 
Ti54	 0.693190	 0.186605	 0.500000 
Sr55	 0.647893	 0.088284	 0.500000 
Ti56	 0.554143	 0.250664	 0.000000 
Sr57	 0.661940	 0.240732	 0.000000 
Ti58	 0.630690	 0.294858	 0.500000 
Sr59	 0.585393	 0.196538	 0.500000 
Ti60	 0.491643	 0.358917	 0.000000 
Sr61	 0.599440	 0.348985	 0.000000 
Ti62	 0.568190	 0.403111	 0.500000 
Sr63	 0.522893	 0.304791	 0.500000 
Ti64	 0.429143	 0.467170	 0.000000 
Sr65	 0.536940	 0.457238	 0.000000 
Ti66	 0.505690	 0.511365	 0.500000 
Sr67	 0.460393	 0.413044	 0.500000 
Ti68	 0.366643	 0.575424	 0.000000 
Sr69	 0.474440	 0.565491	 0.000000 
Ti70	 0.443190	 0.619618	 0.500000 
Sr71	 0.397893	 0.521297	 0.500000 
Ti72	 0.304143	 0.683677	 0.000000 
Sr73	 0.411940	 0.673744	 0.000000 
Ti74	 0.380690	 0.727871	 0.500000 
Sr75	 0.335393	 0.629550	 0.500000 
Ti76	 0.241643	 0.791930	 0.000000 
Sr77	 0.349440	 0.781998	 0.000000 
Ti78	 0.318190	 0.836124	 0.500000 
Sr79	 0.272893	 0.737803	 0.500000 
Ti80	 0.679143	 0.034158	 0.000000 
Sr81	 0.286940	 0.890251	 0.000000 
Ti82	 0.755690	 0.078352	 0.500000 
Sr83	 0.210393	 0.846057	 0.500000 
Ti84	 0.769736	 0.230799	 0.000000 
Sr85	 0.877533	 0.220867	 0.000000 
Ti86	 0.846283	 0.274993	 0.500000 
Sr87	 0.800986	 0.176673	 0.500000 
Ti88	 0.707236	 0.339052	 0.000000 
Sr89	 0.815033	 0.329120	 0.000000 
Ti90	 0.783783	 0.383247	 0.500000 
Sr91	 0.738486	 0.284926	 0.500000 
Ti92	 0.644736	 0.447306	 0.000000 
Sr93	 0.752533	 0.437373	 0.000000 
Ti94	 0.721283	 0.491500	 0.500000 
Sr95	 0.675986	 0.393179	 0.500000 
Ti96	 0.582236	 0.555559	 0.000000 
Sr97	 0.690033	 0.545626	 0.000000 
Ti98	 0.658783	 0.599753	 0.500000 
Sr99	 0.613486	 0.501432	 0.500000 
Ti100	 0.519736	 0.663812	 0.000000 
Sr101	 0.627533	 0.653880	 0.000000 
Ti102	 0.596283	 0.708006	 0.500000 
Sr103	 0.550986	 0.609685	 0.500000 
Ti104	 0.457236	 0.772065	 0.000000 
Sr105	 0.565033	 0.762133	 0.000000 
Ti106	 0.533783	 0.816259	 0.500000 
Sr107	 0.488486	 0.717939	 0.500000 
Ti108	 0.394736	 0.880318	 0.000000 
Sr109	 0.502533	 0.870386	 0.000000 
Ti110	 0.471283	 0.924513	 0.500000 
Sr111	 0.425986	 0.826192	 0.500000 
Ti112	 0.832236	 0.122546	 0.000000 
Sr113	 0.440033	 0.978639	 0.000000 
Ti114	 0.908783	 0.166740	 0.500000 
Sr115	 0.363486	 0.934445	 0.500000 
Ti116	 0.922830	 0.319188	 0.000000 
Ti117	 0.999376	 0.363382	 0.500000 
Sr118	 0.954080	 0.265061	 0.500000 
Ti119	 0.860330	 0.427441	 0.000000 
Sr120	 0.968126	 0.417508	 0.000000 
Ti121	 0.936876	 0.471635	 0.500000 
Sr122	 0.891580	 0.373314	 0.500000 
Ti123	 0.797830	 0.535694	 0.000000 
Sr124	 0.905626	 0.525762	 0.000000 
Ti125	 0.874376	 0.579888	 0.500000 
Sr126	 0.829080	 0.481567	 0.500000 
Ti127	 0.735330	 0.643947	 0.000000 
Sr128	 0.843126	 0.634015	 0.000000 
Ti129	 0.811876	 0.688141	 0.500000 
Sr130	 0.766580	 0.589821	 0.500000 
Ti131	 0.672830	 0.752200	 0.000000 
Sr132	 0.780626	 0.742268	 0.000000 
Ti133	 0.749376	 0.796395	 0.500000 
Sr134	 0.704080	 0.698074	 0.500000 
Ti135	 0.610330	 0.860454	 0.000000 
Sr136	 0.718126	 0.850521	 0.000000 
Ti137	 0.686876	 0.904648	 0.500000 
Sr138	 0.641580	 0.806327	 0.500000 
Ti139	 0.547830	 0.968707	 0.000000 
Sr140	 0.655626	 0.958774	 0.000000 
Sr141	 0.579080	 0.914580	 0.500000 
Ti142	 0.985330	 0.210934	 0.000000 
#                 ---end-of-data-block---
