data_Pt structure along [001] nx 5 ny 8 nz 1
_cell_length_a               31.240000
_cell_length_b               31.240000
_cell_length_c               5.543717
_cell_angle_alpha          90.000000
_cell_angle_beta           90.000000
_cell_angle_gamma          90.000000
_symmetry_cell_setting          Triclinic
_symmetry_space_group_name_H-M 'P 1' 
loop_
_atom_site_label
_atom_site_fract_x
_atom_site_fract_y
_atom_site_fract_z
Ti1	 0.538439	 0.038964	 0.500000 
Ti2	 0.387551	 0.064853	 0.000000 
Sr3	 0.494245	 0.083158	 0.000000 
Ti4	 0.450051	 0.127353	 0.500000 
Sr5	 0.431745	 0.020658	 0.500000 
Ti6	 0.299162	 0.153241	 0.000000 
Sr7	 0.405856	 0.171547	 0.000000 
Ti8	 0.361662	 0.215741	 0.500000 
Sr9	 0.343356	 0.109047	 0.500000 
Ti10	 0.210774	 0.241629	 0.000000 
Sr11	 0.317468	 0.259935	 0.000000 
Ti12	 0.273274	 0.304129	 0.500000 
Sr13	 0.254968	 0.197435	 0.500000 
Ti14	 0.122386	 0.330018	 0.000000 
Sr15	 0.229080	 0.348324	 0.000000 
Ti16	 0.184886	 0.392518	 0.500000 
Sr17	 0.166580	 0.285824	 0.500000 
Ti18	 0.033997	 0.418406	 0.000000 
Sr19	 0.140691	 0.436712	 0.000000 
Ti20	 0.096497	 0.480906	 0.500000 
Sr21	 0.078191	 0.374212	 0.500000 
Sr22	 0.052303	 0.525100	 0.000000 
Ti23	 0.008109	 0.569294	 0.500000 
Ti24	 0.600939	 0.101464	 0.000000 
Sr25	 0.707633	 0.119770	 0.000000 
Ti26	 0.663439	 0.163964	 0.500000 
Sr27	 0.645133	 0.057270	 0.500000 
Ti28	 0.512551	 0.189853	 0.000000 
Sr29	 0.619245	 0.208158	 0.000000 
Ti30	 0.575051	 0.252353	 0.500000 
Sr31	 0.556745	 0.145658	 0.500000 
Ti32	 0.424162	 0.278241	 0.000000 
Sr33	 0.530856	 0.296547	 0.000000 
Ti34	 0.486662	 0.340741	 0.500000 
Sr35	 0.468356	 0.234047	 0.500000 
Ti36	 0.335774	 0.366629	 0.000000 
Sr37	 0.442468	 0.384935	 0.000000 
Ti38	 0.398274	 0.429129	 0.500000 
Sr39	 0.379968	 0.322435	 0.500000 
Ti40	 0.247386	 0.455018	 0.000000 
Sr41	 0.354080	 0.473324	 0.000000 
Ti42	 0.309886	 0.517518	 0.500000 
Sr43	 0.291580	 0.410824	 0.500000 
Ti44	 0.158997	 0.543406	 0.000000 
Sr45	 0.265691	 0.561712	 0.000000 
Ti46	 0.221497	 0.605906	 0.500000 
Sr47	 0.203191	 0.499212	 0.500000 
Ti48	 0.070609	 0.631794	 0.000000 
Sr49	 0.177303	 0.650100	 0.000000 
Ti50	 0.133109	 0.694294	 0.500000 
Sr51	 0.114803	 0.587600	 0.500000 
Ti52	 0.689327	 0.013076	 0.000000 
Sr53	 0.088915	 0.738489	 0.000000 
Ti54	 0.751827	 0.075576	 0.500000 
Sr55	 0.026415	 0.675989	 0.500000 
Ti56	 0.725939	 0.226464	 0.000000 
Sr57	 0.832633	 0.244770	 0.000000 
Ti58	 0.788439	 0.288964	 0.500000 
Sr59	 0.770133	 0.182270	 0.500000 
Ti60	 0.637551	 0.314853	 0.000000 
Sr61	 0.744245	 0.333158	 0.000000 
Ti62	 0.700051	 0.377353	 0.500000 
Sr63	 0.681745	 0.270658	 0.500000 
Ti64	 0.549162	 0.403241	 0.000000 
Sr65	 0.655856	 0.421547	 0.000000 
Ti66	 0.611662	 0.465741	 0.500000 
Sr67	 0.593356	 0.359047	 0.500000 
Ti68	 0.460774	 0.491629	 0.000000 
Sr69	 0.567468	 0.509935	 0.000000 
Ti70	 0.523274	 0.554129	 0.500000 
Sr71	 0.504968	 0.447435	 0.500000 
Ti72	 0.372386	 0.580018	 0.000000 
Sr73	 0.479080	 0.598324	 0.000000 
Ti74	 0.434886	 0.642518	 0.500000 
Sr75	 0.416580	 0.535824	 0.500000 
Ti76	 0.283997	 0.668406	 0.000000 
Sr77	 0.390691	 0.686712	 0.000000 
Ti78	 0.346497	 0.730906	 0.500000 
Sr79	 0.328191	 0.624212	 0.500000 
Ti80	 0.195609	 0.756794	 0.000000 
Sr81	 0.302303	 0.775100	 0.000000 
Ti82	 0.258109	 0.819294	 0.500000 
Sr83	 0.239803	 0.712600	 0.500000 
Ti84	 0.814327	 0.138076	 0.000000 
Sr85	 0.213915	 0.863489	 0.000000 
Ti86	 0.876827	 0.200576	 0.500000 
Sr87	 0.151415	 0.800989	 0.500000 
Ti88	 0.850939	 0.351464	 0.000000 
Sr89	 0.957633	 0.369770	 0.000000 
Ti90	 0.913439	 0.413964	 0.500000 
Sr91	 0.895133	 0.307270	 0.500000 
Ti92	 0.762551	 0.439853	 0.000000 
Sr93	 0.869245	 0.458158	 0.000000 
Ti94	 0.825051	 0.502353	 0.500000 
Sr95	 0.806745	 0.395658	 0.500000 
Ti96	 0.674162	 0.528241	 0.000000 
Sr97	 0.780856	 0.546547	 0.000000 
Ti98	 0.736662	 0.590741	 0.500000 
Sr99	 0.718356	 0.484047	 0.500000 
Ti100	 0.585774	 0.616629	 0.000000 
Sr101	 0.692468	 0.634935	 0.000000 
Ti102	 0.648274	 0.679129	 0.500000 
Sr103	 0.629968	 0.572435	 0.500000 
Ti104	 0.497386	 0.705018	 0.000000 
Sr105	 0.604080	 0.723324	 0.000000 
Ti106	 0.559886	 0.767518	 0.500000 
Sr107	 0.541580	 0.660824	 0.500000 
Ti108	 0.408997	 0.793406	 0.000000 
Sr109	 0.515691	 0.811712	 0.000000 
Ti110	 0.471497	 0.855906	 0.500000 
Sr111	 0.453191	 0.749212	 0.500000 
Ti112	 0.320609	 0.881794	 0.000000 
Sr113	 0.427303	 0.900100	 0.000000 
Ti114	 0.383109	 0.944294	 0.500000 
Sr115	 0.364803	 0.837600	 0.500000 
Ti116	 0.939327	 0.263076	 0.000000 
Sr117	 0.338915	 0.988489	 0.000000 
Sr118	 0.276415	 0.925989	 0.500000 
Ti119	 0.975939	 0.476464	 0.000000 
Ti120	 0.887551	 0.564853	 0.000000 
Sr121	 0.994245	 0.583158	 0.000000 
Ti122	 0.950051	 0.627353	 0.500000 
Sr123	 0.931745	 0.520658	 0.500000 
Ti124	 0.799162	 0.653241	 0.000000 
Sr125	 0.905856	 0.671547	 0.000000 
Ti126	 0.861662	 0.715741	 0.500000 
Sr127	 0.843356	 0.609047	 0.500000 
Ti128	 0.710774	 0.741629	 0.000000 
Sr129	 0.817468	 0.759935	 0.000000 
Ti130	 0.773274	 0.804129	 0.500000 
Sr131	 0.754968	 0.697435	 0.500000 
Ti132	 0.622386	 0.830018	 0.000000 
Sr133	 0.729080	 0.848324	 0.000000 
Ti134	 0.684886	 0.892518	 0.500000 
Sr135	 0.666580	 0.785824	 0.500000 
Ti136	 0.533997	 0.918406	 0.000000 
Sr137	 0.640691	 0.936712	 0.000000 
Ti138	 0.596497	 0.980906	 0.500000 
Sr139	 0.578191	 0.874212	 0.500000 
Sr140	 0.489803	 0.962600	 0.500000 
#                 ---end-of-data-block---
