data_Pt structure along [001] nx 5 ny 8 nz 1
_cell_length_a               31.240000
_cell_length_b               31.240000
_cell_length_c               5.543717
_cell_angle_alpha          90.000000
_cell_angle_beta           90.000000
_cell_angle_gamma          90.000000
_symmetry_cell_setting          Triclinic
_symmetry_space_group_name_H-M 'P 1' 
loop_
_atom_site_label
_atom_site_fract_x
_atom_site_fract_y
_atom_site_fract_z
Ti1	 0.404013	 0.021349	 0.000000 
Sr2	 0.510707	 0.039655	 0.000000 
Ti3	 0.466513	 0.083849	 0.500000 
Ti4	 0.315625	 0.109737	 0.000000 
Sr5	 0.422319	 0.128043	 0.000000 
Ti6	 0.378125	 0.172237	 0.500000 
Sr7	 0.359819	 0.065543	 0.500000 
Ti8	 0.227236	 0.198125	 0.000000 
Sr9	 0.333930	 0.216431	 0.000000 
Ti10	 0.289736	 0.260625	 0.500000 
Sr11	 0.271430	 0.153931	 0.500000 
Ti12	 0.138848	 0.286514	 0.000000 
Sr13	 0.245542	 0.304820	 0.000000 
Ti14	 0.201348	 0.349014	 0.500000 
Sr15	 0.183042	 0.242320	 0.500000 
Ti16	 0.050459	 0.374902	 0.000000 
Sr17	 0.157154	 0.393208	 0.000000 
Ti18	 0.112959	 0.437402	 0.500000 
Sr19	 0.094654	 0.330708	 0.500000 
Sr20	 0.068765	 0.481596	 0.000000 
Ti21	 0.024571	 0.525790	 0.500000 
Sr22	 0.006265	 0.419096	 0.500000 
Ti23	 0.617401	 0.057960	 0.000000 
Sr24	 0.724095	 0.076266	 0.000000 
Ti25	 0.679901	 0.120460	 0.500000 
Sr26	 0.661595	 0.013766	 0.500000 
Ti27	 0.529013	 0.146349	 0.000000 
Sr28	 0.635707	 0.164655	 0.000000 
Ti29	 0.591513	 0.208849	 0.500000 
Sr30	 0.573207	 0.102155	 0.500000 
Ti31	 0.440625	 0.234737	 0.000000 
Sr32	 0.547319	 0.253043	 0.000000 
Ti33	 0.503125	 0.297237	 0.500000 
Sr34	 0.484819	 0.190543	 0.500000 
Ti35	 0.352236	 0.323125	 0.000000 
Sr36	 0.458930	 0.341431	 0.000000 
Ti37	 0.414736	 0.385625	 0.500000 
Sr38	 0.396430	 0.278931	 0.500000 
Ti39	 0.263848	 0.411514	 0.000000 
Sr40	 0.370542	 0.429820	 0.000000 
Ti41	 0.326348	 0.474014	 0.500000 
Sr42	 0.308042	 0.367320	 0.500000 
Ti43	 0.175459	 0.499902	 0.000000 
Sr44	 0.282154	 0.518208	 0.000000 
Ti45	 0.237959	 0.562402	 0.500000 
Sr46	 0.219654	 0.455708	 0.500000 
Ti47	 0.087071	 0.588290	 0.000000 
Sr48	 0.193765	 0.606596	 0.000000 
Ti49	 0.149571	 0.650790	 0.500000 
Sr50	 0.131265	 0.544096	 0.500000 
Sr51	 0.105377	 0.694985	 0.000000 
Ti52	 0.061183	 0.739179	 0.500000 
Sr53	 0.042877	 0.632485	 0.500000 
Ti54	 0.742401	 0.182960	 0.000000 
Sr55	 0.849095	 0.201266	 0.000000 
Ti56	 0.804901	 0.245460	 0.500000 
Sr57	 0.786595	 0.138766	 0.500000 
Ti58	 0.654013	 0.271349	 0.000000 
Sr59	 0.760707	 0.289655	 0.000000 
Ti60	 0.716513	 0.333849	 0.500000 
Sr61	 0.698207	 0.227155	 0.500000 
Ti62	 0.565625	 0.359737	 0.000000 
Sr63	 0.672319	 0.378043	 0.000000 
Ti64	 0.628125	 0.422237	 0.500000 
Sr65	 0.609819	 0.315543	 0.500000 
Ti66	 0.477236	 0.448125	 0.000000 
Sr67	 0.583930	 0.466431	 0.000000 
Ti68	 0.539736	 0.510625	 0.500000 
Sr69	 0.521430	 0.403931	 0.500000 
Ti70	 0.388848	 0.536514	 0.000000 
Sr71	 0.495542	 0.554820	 0.000000 
Ti72	 0.451348	 0.599014	 0.500000 
Sr73	 0.433042	 0.492320	 0.500000 
Ti74	 0.300459	 0.624902	 0.000000 
Sr75	 0.407154	 0.643208	 0.000000 
Ti76	 0.362959	 0.687402	 0.500000 
Sr77	 0.344654	 0.580708	 0.500000 
Ti78	 0.212071	 0.713290	 0.000000 
Sr79	 0.318765	 0.731596	 0.000000 
Ti80	 0.274571	 0.775790	 0.500000 
Sr81	 0.256265	 0.669096	 0.500000 
Ti82	 0.123683	 0.801679	 0.000000 
Sr83	 0.230377	 0.819985	 0.000000 
Ti84	 0.186183	 0.864179	 0.500000 
Sr85	 0.167877	 0.757485	 0.500000 
Ti86	 0.867401	 0.307960	 0.000000 
Sr87	 0.974095	 0.326266	 0.000000 
Ti88	 0.929901	 0.370460	 0.500000 
Sr89	 0.911595	 0.263766	 0.500000 
Ti90	 0.779013	 0.396349	 0.000000 
Sr91	 0.885707	 0.414655	 0.000000 
Ti92	 0.841513	 0.458849	 0.500000 
Sr93	 0.823207	 0.352155	 0.500000 
Ti94	 0.690625	 0.484737	 0.000000 
Sr95	 0.797319	 0.503043	 0.000000 
Ti96	 0.753125	 0.547237	 0.500000 
Sr97	 0.734819	 0.440543	 0.500000 
Ti98	 0.602236	 0.573125	 0.000000 
Sr99	 0.708930	 0.591431	 0.000000 
Ti100	 0.664736	 0.635625	 0.500000 
Sr101	 0.646430	 0.528931	 0.500000 
Ti102	 0.513848	 0.661514	 0.000000 
Sr103	 0.620542	 0.679820	 0.000000 
Ti104	 0.576348	 0.724014	 0.500000 
Sr105	 0.558042	 0.617320	 0.500000 
Ti106	 0.425459	 0.749902	 0.000000 
Sr107	 0.532154	 0.768208	 0.000000 
Ti108	 0.487959	 0.812402	 0.500000 
Sr109	 0.469654	 0.705708	 0.500000 
Ti110	 0.337071	 0.838290	 0.000000 
Sr111	 0.443765	 0.856596	 0.000000 
Ti112	 0.399571	 0.900790	 0.500000 
Sr113	 0.381265	 0.794096	 0.500000 
Ti114	 0.248683	 0.926679	 0.000000 
Sr115	 0.355377	 0.944985	 0.000000 
Ti116	 0.311183	 0.989179	 0.500000 
Sr117	 0.292877	 0.882485	 0.500000 
Ti118	 0.992401	 0.432960	 0.000000 
Ti119	 0.904013	 0.521349	 0.000000 
Ti120	 0.966513	 0.583849	 0.500000 
Sr121	 0.948207	 0.477155	 0.500000 
Ti122	 0.815625	 0.609737	 0.000000 
Sr123	 0.922319	 0.628043	 0.000000 
Ti124	 0.878125	 0.672237	 0.500000 
Sr125	 0.859819	 0.565543	 0.500000 
Ti126	 0.727236	 0.698125	 0.000000 
Sr127	 0.833930	 0.716431	 0.000000 
Ti128	 0.789736	 0.760625	 0.500000 
Sr129	 0.771430	 0.653931	 0.500000 
Ti130	 0.638848	 0.786514	 0.000000 
Sr131	 0.745542	 0.804820	 0.000000 
Ti132	 0.701348	 0.849014	 0.500000 
Sr133	 0.683042	 0.742320	 0.500000 
Ti134	 0.550459	 0.874902	 0.000000 
Sr135	 0.657154	 0.893208	 0.000000 
Ti136	 0.612959	 0.937402	 0.500000 
Sr137	 0.594654	 0.830708	 0.500000 
Ti138	 0.462071	 0.963290	 0.000000 
Sr139	 0.568765	 0.981596	 0.000000 
Sr140	 0.506265	 0.919096	 0.500000 
#                 ---end-of-data-block---
