data_Pt structure along [001] nx 5 ny 8 nz 1
_cell_length_a               31.240000
_cell_length_b               31.240000
_cell_length_c               5.543717
_cell_angle_alpha          90.000000
_cell_angle_beta           90.000000
_cell_angle_gamma          90.000000
_symmetry_cell_setting          Triclinic
_symmetry_space_group_name_H-M 'P 1' 
loop_
_atom_site_label
_atom_site_fract_x
_atom_site_fract_y
_atom_site_fract_z
Ti1	 0.547456	 0.063245	 0.000000 
Sr2	 0.654150	 0.081551	 0.000000 
Ti3	 0.609956	 0.125745	 0.500000 
Sr4	 0.591650	 0.019051	 0.500000 
Ti5	 0.459068	 0.151633	 0.000000 
Sr6	 0.565762	 0.169939	 0.000000 
Ti7	 0.521568	 0.214133	 0.500000 
Sr8	 0.503262	 0.107439	 0.500000 
Ti9	 0.370679	 0.240022	 0.000000 
Sr10	 0.477374	 0.258327	 0.000000 
Ti11	 0.433179	 0.302522	 0.500000 
Sr12	 0.414874	 0.195827	 0.500000 
Ti13	 0.282291	 0.328410	 0.000000 
Sr14	 0.388985	 0.346716	 0.000000 
Ti15	 0.344791	 0.390910	 0.500000 
Sr16	 0.326485	 0.284216	 0.500000 
Ti17	 0.193903	 0.416798	 0.000000 
Sr18	 0.300597	 0.435104	 0.000000 
Ti19	 0.256403	 0.479298	 0.500000 
Sr20	 0.238097	 0.372604	 0.500000 
Ti21	 0.105514	 0.505187	 0.000000 
Sr22	 0.212209	 0.523492	 0.000000 
Ti23	 0.168014	 0.567687	 0.500000 
Sr24	 0.149709	 0.460992	 0.500000 
Ti25	 0.017126	 0.593575	 0.000000 
Sr26	 0.123820	 0.611881	 0.000000 
Ti27	 0.079626	 0.656075	 0.500000 
Sr28	 0.061320	 0.549381	 0.500000 
Sr29	 0.035432	 0.700269	 0.000000 
Ti30	 0.698345	 0.037357	 0.500000 
Ti31	 0.672456	 0.188245	 0.000000 
Sr32	 0.779150	 0.206551	 0.000000 
Ti33	 0.734956	 0.250745	 0.500000 
Sr34	 0.716650	 0.144051	 0.500000 
Ti35	 0.584068	 0.276633	 0.000000 
Sr36	 0.690762	 0.294939	 0.000000 
Ti37	 0.646568	 0.339133	 0.500000 
Sr38	 0.628262	 0.232439	 0.500000 
Ti39	 0.495679	 0.365022	 0.000000 
Sr40	 0.602374	 0.383327	 0.000000 
Ti41	 0.558179	 0.427522	 0.500000 
Sr42	 0.539874	 0.320827	 0.500000 
Ti43	 0.407291	 0.453410	 0.000000 
Sr44	 0.513985	 0.471716	 0.000000 
Ti45	 0.469791	 0.515910	 0.500000 
Sr46	 0.451485	 0.409216	 0.500000 
Ti47	 0.318903	 0.541798	 0.000000 
Sr48	 0.425597	 0.560104	 0.000000 
Ti49	 0.381403	 0.604298	 0.500000 
Sr50	 0.363097	 0.497604	 0.500000 
Ti51	 0.230514	 0.630187	 0.000000 
Sr52	 0.337209	 0.648492	 0.000000 
Ti53	 0.293014	 0.692687	 0.500000 
Sr54	 0.274709	 0.585992	 0.500000 
Ti55	 0.142126	 0.718575	 0.000000 
Sr56	 0.248820	 0.736881	 0.000000 
Ti57	 0.204626	 0.781075	 0.500000 
Sr58	 0.186320	 0.674381	 0.500000 
Ti59	 0.760845	 0.099857	 0.000000 
Sr60	 0.160432	 0.825269	 0.000000 
Ti61	 0.823345	 0.162357	 0.500000 
Sr62	 0.097932	 0.762769	 0.500000 
Ti63	 0.797456	 0.313245	 0.000000 
Sr64	 0.904150	 0.331551	 0.000000 
Ti65	 0.859956	 0.375745	 0.500000 
Sr66	 0.841650	 0.269051	 0.500000 
Ti67	 0.709068	 0.401633	 0.000000 
Sr68	 0.815762	 0.419939	 0.000000 
Ti69	 0.771568	 0.464133	 0.500000 
Sr70	 0.753262	 0.357439	 0.500000 
Ti71	 0.620679	 0.490022	 0.000000 
Sr72	 0.727374	 0.508327	 0.000000 
Ti73	 0.683179	 0.552522	 0.500000 
Sr74	 0.664874	 0.445827	 0.500000 
Ti75	 0.532291	 0.578410	 0.000000 
Sr76	 0.638985	 0.596716	 0.000000 
Ti77	 0.594791	 0.640910	 0.500000 
Sr78	 0.576485	 0.534216	 0.500000 
Ti79	 0.443903	 0.666798	 0.000000 
Sr80	 0.550597	 0.685104	 0.000000 
Ti81	 0.506403	 0.729298	 0.500000 
Sr82	 0.488097	 0.622604	 0.500000 
Ti83	 0.355514	 0.755187	 0.000000 
Sr84	 0.462209	 0.773492	 0.000000 
Ti85	 0.418014	 0.817687	 0.500000 
Sr86	 0.399709	 0.710992	 0.500000 
Ti87	 0.267126	 0.843575	 0.000000 
Sr88	 0.373820	 0.861881	 0.000000 
Ti89	 0.329626	 0.906075	 0.500000 
Sr90	 0.311320	 0.799381	 0.500000 
Ti91	 0.885845	 0.224857	 0.000000 
Sr92	 0.285432	 0.950269	 0.000000 
Ti93	 0.948345	 0.287357	 0.500000 
Sr94	 0.222932	 0.887769	 0.500000 
Ti95	 0.922456	 0.438245	 0.000000 
Ti96	 0.984956	 0.500745	 0.500000 
Sr97	 0.966650	 0.394051	 0.500000 
Ti98	 0.834068	 0.526633	 0.000000 
Sr99	 0.940762	 0.544939	 0.000000 
Ti100	 0.896568	 0.589133	 0.500000 
Sr101	 0.878262	 0.482439	 0.500000 
Ti102	 0.745679	 0.615022	 0.000000 
Sr103	 0.852374	 0.633327	 0.000000 
Ti104	 0.808179	 0.677522	 0.500000 
Sr105	 0.789874	 0.570827	 0.500000 
Ti106	 0.657291	 0.703410	 0.000000 
Sr107	 0.763985	 0.721716	 0.000000 
Ti108	 0.719791	 0.765910	 0.500000 
Sr109	 0.701485	 0.659216	 0.500000 
Ti110	 0.568903	 0.791798	 0.000000 
Sr111	 0.675597	 0.810104	 0.000000 
Ti112	 0.631403	 0.854298	 0.500000 
Sr113	 0.613097	 0.747604	 0.500000 
Ti114	 0.480514	 0.880187	 0.000000 
Sr115	 0.587209	 0.898492	 0.000000 
Ti116	 0.543014	 0.942687	 0.500000 
Sr117	 0.524709	 0.835992	 0.500000 
Ti118	 0.392126	 0.968575	 0.000000 
Sr119	 0.498820	 0.986881	 0.000000 
Sr120	 0.436320	 0.924381	 0.500000 
Ti121	 0.484956	 0.000745	 0.500000 
Ti122	 0.959068	 0.651633	 0.000000 
Sr123	 0.440762	 0.044939	 0.000000 
Ti124	 0.396568	 0.089133	 0.500000 
Ti125	 0.870679	 0.740022	 0.000000 
Sr126	 0.352374	 0.133327	 0.000000 
Ti127	 0.308179	 0.177522	 0.500000 
Sr128	 0.914874	 0.695827	 0.500000 
Ti129	 0.782291	 0.828410	 0.000000 
Sr130	 0.263985	 0.221716	 0.000000 
Ti131	 0.219791	 0.265910	 0.500000 
Sr132	 0.826485	 0.784216	 0.500000 
Ti133	 0.693903	 0.916798	 0.000000 
Sr134	 0.175597	 0.310104	 0.000000 
Ti135	 0.131403	 0.354298	 0.500000 
Sr136	 0.738097	 0.872604	 0.500000 
Sr137	 0.087209	 0.398492	 0.000000 
Ti138	 0.043014	 0.442687	 0.500000 
Sr139	 0.649709	 0.960992	 0.500000 
#                 ---end-of-data-block---
