data_Pt structure along [001] nx 5 ny 8 nz 1
_cell_length_a               31.240000
_cell_length_b               31.240000
_cell_length_c               5.543717
_cell_angle_alpha          90.000000
_cell_angle_beta           90.000000
_cell_angle_gamma          90.000000
_symmetry_cell_setting          Triclinic
_symmetry_space_group_name_H-M 'P 1' 
loop_
_atom_site_label
_atom_site_fract_x
_atom_site_fract_y
_atom_site_fract_z
Ti1	 0.600496	 0.015631	 0.000000 
Sr2	 0.707190	 0.033937	 0.000000 
Ti3	 0.662996	 0.078131	 0.500000 
Ti4	 0.512108	 0.104020	 0.000000 
Sr5	 0.618802	 0.122326	 0.000000 
Ti6	 0.574608	 0.166520	 0.500000 
Sr7	 0.556302	 0.059826	 0.500000 
Ti8	 0.423719	 0.192408	 0.000000 
Sr9	 0.530413	 0.210714	 0.000000 
Ti10	 0.486219	 0.254908	 0.500000 
Sr11	 0.467913	 0.148214	 0.500000 
Ti12	 0.335331	 0.280797	 0.000000 
Sr13	 0.442025	 0.299102	 0.000000 
Ti14	 0.397831	 0.343297	 0.500000 
Sr15	 0.379525	 0.236602	 0.500000 
Ti16	 0.246943	 0.369185	 0.000000 
Sr17	 0.353637	 0.387491	 0.000000 
Ti18	 0.309443	 0.431685	 0.500000 
Sr19	 0.291137	 0.324991	 0.500000 
Ti20	 0.158554	 0.457573	 0.000000 
Sr21	 0.265248	 0.475879	 0.000000 
Ti22	 0.221054	 0.520073	 0.500000 
Sr23	 0.202748	 0.413379	 0.500000 
Ti24	 0.070166	 0.545962	 0.000000 
Sr25	 0.176860	 0.564267	 0.000000 
Ti26	 0.132666	 0.608462	 0.500000 
Sr27	 0.114360	 0.501767	 0.500000 
Sr28	 0.088472	 0.652656	 0.000000 
Ti29	 0.044278	 0.696850	 0.500000 
Sr30	 0.025972	 0.590156	 0.500000 
Ti31	 0.725496	 0.140631	 0.000000 
Sr32	 0.832190	 0.158937	 0.000000 
Ti33	 0.787996	 0.203131	 0.500000 
Sr34	 0.769690	 0.096437	 0.500000 
Ti35	 0.637108	 0.229020	 0.000000 
Sr36	 0.743802	 0.247326	 0.000000 
Ti37	 0.699608	 0.291520	 0.500000 
Sr38	 0.681302	 0.184826	 0.500000 
Ti39	 0.548719	 0.317408	 0.000000 
Sr40	 0.655413	 0.335714	 0.000000 
Ti41	 0.611219	 0.379908	 0.500000 
Sr42	 0.592913	 0.273214	 0.500000 
Ti43	 0.460331	 0.405797	 0.000000 
Sr44	 0.567025	 0.424102	 0.000000 
Ti45	 0.522831	 0.468297	 0.500000 
Sr46	 0.504525	 0.361602	 0.500000 
Ti47	 0.371943	 0.494185	 0.000000 
Sr48	 0.478637	 0.512491	 0.000000 
Ti49	 0.434443	 0.556685	 0.500000 
Sr50	 0.416137	 0.449991	 0.500000 
Ti51	 0.283554	 0.582573	 0.000000 
Sr52	 0.390248	 0.600879	 0.000000 
Ti53	 0.346054	 0.645073	 0.500000 
Sr54	 0.327748	 0.538379	 0.500000 
Ti55	 0.195166	 0.670962	 0.000000 
Sr56	 0.301860	 0.689267	 0.000000 
Ti57	 0.257666	 0.733462	 0.500000 
Sr58	 0.239360	 0.626767	 0.500000 
Ti59	 0.106778	 0.759350	 0.000000 
Sr60	 0.213472	 0.777656	 0.000000 
Ti61	 0.169278	 0.821850	 0.500000 
Sr62	 0.150972	 0.715156	 0.500000 
Ti63	 0.850496	 0.265631	 0.000000 
Sr64	 0.957190	 0.283937	 0.000000 
Ti65	 0.912996	 0.328131	 0.500000 
Sr66	 0.894690	 0.221437	 0.500000 
Ti67	 0.762108	 0.354020	 0.000000 
Sr68	 0.868802	 0.372326	 0.000000 
Ti69	 0.824608	 0.416520	 0.500000 
Sr70	 0.806302	 0.309826	 0.500000 
Ti71	 0.673719	 0.442408	 0.000000 
Sr72	 0.780413	 0.460714	 0.000000 
Ti73	 0.736219	 0.504908	 0.500000 
Sr74	 0.717913	 0.398214	 0.500000 
Ti75	 0.585331	 0.530797	 0.000000 
Sr76	 0.692025	 0.549102	 0.000000 
Ti77	 0.647831	 0.593297	 0.500000 
Sr78	 0.629525	 0.486602	 0.500000 
Ti79	 0.496943	 0.619185	 0.000000 
Sr80	 0.603637	 0.637491	 0.000000 
Ti81	 0.559443	 0.681685	 0.500000 
Sr82	 0.541137	 0.574991	 0.500000 
Ti83	 0.408554	 0.707573	 0.000000 
Sr84	 0.515248	 0.725879	 0.000000 
Ti85	 0.471054	 0.770073	 0.500000 
Sr86	 0.452748	 0.663379	 0.500000 
Ti87	 0.320166	 0.795962	 0.000000 
Sr88	 0.426860	 0.814267	 0.000000 
Ti89	 0.382666	 0.858462	 0.500000 
Sr90	 0.364360	 0.751767	 0.500000 
Ti91	 0.231778	 0.884350	 0.000000 
Sr92	 0.338472	 0.902656	 0.000000 
Ti93	 0.294278	 0.946850	 0.500000 
Sr94	 0.275972	 0.840156	 0.500000 
Ti95	 0.975496	 0.390631	 0.000000 
Ti96	 0.887108	 0.479020	 0.000000 
Sr97	 0.993802	 0.497326	 0.000000 
Ti98	 0.949608	 0.541520	 0.500000 
Sr99	 0.931302	 0.434826	 0.500000 
Ti100	 0.798719	 0.567408	 0.000000 
Sr101	 0.905413	 0.585714	 0.000000 
Ti102	 0.861219	 0.629908	 0.500000 
Sr103	 0.842913	 0.523214	 0.500000 
Ti104	 0.710331	 0.655797	 0.000000 
Sr105	 0.817025	 0.674102	 0.000000 
Ti106	 0.772831	 0.718297	 0.500000 
Sr107	 0.754525	 0.611602	 0.500000 
Ti108	 0.621943	 0.744185	 0.000000 
Sr109	 0.728637	 0.762491	 0.000000 
Ti110	 0.684443	 0.806685	 0.500000 
Sr111	 0.666137	 0.699991	 0.500000 
Ti112	 0.533554	 0.832573	 0.000000 
Sr113	 0.640248	 0.850879	 0.000000 
Ti114	 0.596054	 0.895073	 0.500000 
Sr115	 0.577748	 0.788379	 0.500000 
Ti116	 0.445166	 0.920962	 0.000000 
Sr117	 0.551860	 0.939267	 0.000000 
Ti118	 0.507666	 0.983462	 0.500000 
Sr119	 0.489360	 0.876767	 0.500000 
Sr120	 0.400972	 0.965156	 0.500000 
Ti121	 0.449608	 0.041520	 0.500000 
Ti122	 0.923719	 0.692408	 0.000000 
Sr123	 0.405413	 0.085714	 0.000000 
Ti124	 0.361219	 0.129908	 0.500000 
Sr125	 0.967913	 0.648214	 0.500000 
Ti126	 0.835331	 0.780797	 0.000000 
Sr127	 0.317025	 0.174102	 0.000000 
Ti128	 0.272831	 0.218297	 0.500000 
Sr129	 0.879525	 0.736602	 0.500000 
Ti130	 0.746943	 0.869185	 0.000000 
Sr131	 0.228637	 0.262491	 0.000000 
Ti132	 0.184443	 0.306685	 0.500000 
Sr133	 0.791137	 0.824991	 0.500000 
Ti134	 0.658554	 0.957573	 0.000000 
Sr135	 0.140248	 0.350879	 0.000000 
Ti136	 0.096054	 0.395073	 0.500000 
Sr137	 0.702748	 0.913379	 0.500000 
Sr138	 0.051860	 0.439267	 0.000000 
Ti139	 0.007666	 0.483462	 0.500000 
#                 ---end-of-data-block---
