data_Pt structure along [001] nx 5 ny 8 nz 1
_cell_length_a               31.240000
_cell_length_b               31.240000
_cell_length_c               5.543717
_cell_angle_alpha          90.000000
_cell_angle_beta           90.000000
_cell_angle_gamma          90.000000
_symmetry_cell_setting          Triclinic
_symmetry_space_group_name_H-M 'P 1' 
loop_
_atom_site_label
_atom_site_fract_x
_atom_site_fract_y
_atom_site_fract_z
Ti1	 0.643307	 0.096392	 0.000000 
Sr2	 0.741628	 0.141689	 0.000000 
Ti3	 0.687501	 0.172939	 0.500000 
Sr4	 0.697434	 0.065142	 0.500000 
Ti5	 0.535054	 0.158892	 0.000000 
Sr6	 0.633375	 0.204189	 0.000000 
Ti7	 0.579248	 0.235439	 0.500000 
Sr8	 0.589180	 0.127642	 0.500000 
Ti9	 0.426801	 0.221392	 0.000000 
Sr10	 0.525121	 0.266689	 0.000000 
Ti11	 0.470995	 0.297939	 0.500000 
Sr12	 0.480927	 0.190142	 0.500000 
Ti13	 0.318548	 0.283892	 0.000000 
Sr14	 0.416868	 0.329189	 0.000000 
Ti15	 0.362742	 0.360439	 0.500000 
Sr16	 0.372674	 0.252642	 0.500000 
Ti17	 0.210294	 0.346392	 0.000000 
Sr18	 0.308615	 0.391689	 0.000000 
Ti19	 0.254489	 0.422939	 0.500000 
Sr20	 0.264421	 0.315142	 0.500000 
Ti21	 0.102041	 0.408892	 0.000000 
Sr22	 0.200362	 0.454189	 0.000000 
Ti23	 0.146235	 0.485439	 0.500000 
Sr24	 0.156168	 0.377642	 0.500000 
Sr25	 0.092109	 0.516689	 0.000000 
Ti26	 0.037982	 0.547939	 0.500000 
Sr27	 0.047915	 0.440142	 0.500000 
Ti28	 0.751560	 0.033892	 0.000000 
Ti29	 0.795754	 0.110439	 0.500000 
Ti30	 0.731695	 0.249485	 0.000000 
Sr31	 0.830016	 0.294782	 0.000000 
Ti32	 0.775890	 0.326032	 0.500000 
Sr33	 0.785822	 0.218235	 0.500000 
Ti34	 0.623442	 0.311985	 0.000000 
Sr35	 0.721763	 0.357282	 0.000000 
Ti36	 0.667636	 0.388532	 0.500000 
Sr37	 0.677569	 0.280735	 0.500000 
Ti38	 0.515189	 0.374485	 0.000000 
Sr39	 0.613510	 0.419782	 0.000000 
Ti40	 0.559383	 0.451032	 0.500000 
Sr41	 0.569316	 0.343235	 0.500000 
Ti42	 0.406936	 0.436985	 0.000000 
Sr43	 0.505257	 0.482282	 0.000000 
Ti44	 0.451130	 0.513532	 0.500000 
Sr45	 0.461062	 0.405735	 0.500000 
Ti46	 0.298683	 0.499485	 0.000000 
Sr47	 0.397003	 0.544782	 0.000000 
Ti48	 0.342877	 0.576032	 0.500000 
Sr49	 0.352809	 0.468235	 0.500000 
Ti50	 0.190430	 0.561985	 0.000000 
Sr51	 0.288750	 0.607282	 0.000000 
Ti52	 0.234624	 0.638532	 0.500000 
Sr53	 0.244556	 0.530735	 0.500000 
Ti54	 0.082176	 0.624485	 0.000000 
Sr55	 0.180497	 0.669782	 0.000000 
Ti56	 0.126371	 0.701032	 0.500000 
Sr57	 0.136303	 0.593235	 0.500000 
Ti58	 0.839949	 0.186985	 0.000000 
Sr59	 0.072244	 0.732282	 0.000000 
Ti60	 0.884143	 0.263532	 0.500000 
Sr61	 0.028050	 0.655735	 0.500000 
Ti62	 0.820084	 0.402578	 0.000000 
Sr63	 0.918405	 0.447875	 0.000000 
Ti64	 0.864278	 0.479125	 0.500000 
Sr65	 0.874210	 0.371328	 0.500000 
Ti66	 0.711831	 0.465078	 0.000000 
Sr67	 0.810151	 0.510375	 0.000000 
Ti68	 0.756025	 0.541625	 0.500000 
Sr69	 0.765957	 0.433828	 0.500000 
Ti70	 0.603577	 0.527578	 0.000000 
Sr71	 0.701898	 0.572875	 0.000000 
Ti72	 0.647772	 0.604125	 0.500000 
Sr73	 0.657704	 0.496328	 0.500000 
Ti74	 0.495324	 0.590078	 0.000000 
Sr75	 0.593645	 0.635375	 0.000000 
Ti76	 0.539518	 0.666625	 0.500000 
Sr77	 0.549451	 0.558828	 0.500000 
Ti78	 0.387071	 0.652578	 0.000000 
Sr79	 0.485392	 0.697875	 0.000000 
Ti80	 0.431265	 0.729125	 0.500000 
Sr81	 0.441198	 0.621328	 0.500000 
Ti82	 0.278818	 0.715078	 0.000000 
Sr83	 0.377139	 0.760375	 0.000000 
Ti84	 0.323012	 0.791625	 0.500000 
Sr85	 0.332944	 0.683828	 0.500000 
Ti86	 0.170565	 0.777578	 0.000000 
Sr87	 0.268885	 0.822875	 0.000000 
Ti88	 0.214759	 0.854125	 0.500000 
Sr89	 0.224691	 0.746328	 0.500000 
Ti90	 0.928337	 0.340078	 0.000000 
Sr91	 0.160632	 0.885375	 0.000000 
Ti92	 0.972531	 0.416625	 0.500000 
Sr93	 0.116438	 0.808828	 0.500000 
Ti94	 0.908472	 0.555672	 0.000000 
Ti95	 0.952666	 0.632218	 0.500000 
Sr96	 0.962599	 0.524422	 0.500000 
Ti97	 0.800219	 0.618172	 0.000000 
Sr98	 0.898540	 0.663468	 0.000000 
Ti99	 0.844413	 0.694718	 0.500000 
Sr100	 0.854346	 0.586922	 0.500000 
Ti101	 0.691966	 0.680672	 0.000000 
Sr102	 0.790286	 0.725968	 0.000000 
Ti103	 0.736160	 0.757218	 0.500000 
Sr104	 0.746092	 0.649422	 0.500000 
Ti105	 0.583713	 0.743172	 0.000000 
Sr106	 0.682033	 0.788468	 0.000000 
Ti107	 0.627907	 0.819718	 0.500000 
Sr108	 0.637839	 0.711922	 0.500000 
Ti109	 0.475459	 0.805672	 0.000000 
Sr110	 0.573780	 0.850968	 0.000000 
Ti111	 0.519654	 0.882218	 0.500000 
Sr112	 0.529586	 0.774422	 0.500000 
Ti113	 0.367206	 0.868172	 0.000000 
Sr114	 0.465527	 0.913468	 0.000000 
Ti115	 0.411400	 0.944718	 0.500000 
Sr116	 0.421333	 0.836922	 0.500000 
Ti117	 0.258953	 0.930672	 0.000000 
Sr118	 0.357274	 0.975968	 0.000000 
Sr119	 0.313080	 0.899422	 0.500000 
Sr120	 0.204826	 0.961922	 0.500000 
Ti121	 0.996860	 0.708765	 0.000000 
Ti122	 0.599113	 0.019846	 0.500000 
Ti123	 0.888607	 0.771265	 0.000000 
Sr124	 0.544986	 0.051096	 0.000000 
Ti125	 0.490860	 0.082346	 0.500000 
Sr126	 0.942734	 0.740015	 0.500000 
Ti127	 0.780354	 0.833765	 0.000000 
Sr128	 0.436733	 0.113596	 0.000000 
Ti129	 0.382607	 0.144846	 0.500000 
Sr130	 0.834481	 0.802515	 0.500000 
Ti131	 0.672101	 0.896265	 0.000000 
Sr132	 0.328480	 0.176096	 0.000000 
Ti133	 0.274353	 0.207346	 0.500000 
Sr134	 0.726227	 0.865015	 0.500000 
Ti135	 0.563848	 0.958765	 0.000000 
Sr136	 0.220227	 0.238596	 0.000000 
Ti137	 0.166100	 0.269846	 0.500000 
Sr138	 0.617974	 0.927515	 0.500000 
Sr139	 0.111974	 0.301096	 0.000000 
Ti140	 0.057847	 0.332346	 0.500000 
Sr141	 0.509721	 0.990015	 0.500000 
Sr142	 0.003720	 0.363596	 0.000000 
#                 ---end-of-data-block---
