data_Pt structure along [001] nx 5 ny 8 nz 1
_cell_length_a               31.240000
_cell_length_b               31.240000
_cell_length_c               5.543717
_cell_angle_alpha          90.000000
_cell_angle_beta           90.000000
_cell_angle_gamma          90.000000
_symmetry_cell_setting          Triclinic
_symmetry_space_group_name_H-M 'P 1' 
loop_
_atom_site_label
_atom_site_fract_x
_atom_site_fract_y
_atom_site_fract_z
Ti1	 0.686184	 0.079748	 0.000000 
Sr2	 0.784504	 0.125045	 0.000000 
Ti3	 0.730378	 0.156295	 0.500000 
Sr4	 0.740310	 0.048498	 0.500000 
Ti5	 0.577930	 0.142248	 0.000000 
Sr6	 0.676251	 0.187545	 0.000000 
Ti7	 0.622125	 0.218795	 0.500000 
Sr8	 0.632057	 0.110998	 0.500000 
Ti9	 0.469677	 0.204748	 0.000000 
Sr10	 0.567998	 0.250045	 0.000000 
Ti11	 0.513871	 0.281295	 0.500000 
Sr12	 0.523804	 0.173498	 0.500000 
Ti13	 0.361424	 0.267248	 0.000000 
Sr14	 0.459745	 0.312545	 0.000000 
Ti15	 0.405618	 0.343795	 0.500000 
Sr16	 0.415551	 0.235998	 0.500000 
Ti17	 0.253171	 0.329748	 0.000000 
Sr18	 0.351492	 0.375045	 0.000000 
Ti19	 0.297365	 0.406295	 0.500000 
Sr20	 0.307297	 0.298498	 0.500000 
Ti21	 0.144918	 0.392248	 0.000000 
Sr22	 0.243238	 0.437545	 0.000000 
Ti23	 0.189112	 0.468795	 0.500000 
Sr24	 0.199044	 0.360998	 0.500000 
Ti25	 0.036665	 0.454748	 0.000000 
Sr26	 0.134985	 0.500045	 0.000000 
Ti27	 0.080859	 0.531295	 0.500000 
Sr28	 0.090791	 0.423498	 0.500000 
Ti29	 0.794437	 0.017248	 0.000000 
Sr30	 0.026732	 0.562545	 0.000000 
Ti31	 0.838631	 0.093795	 0.500000 
Ti32	 0.774572	 0.232841	 0.000000 
Sr33	 0.872893	 0.278138	 0.000000 
Ti34	 0.818766	 0.309388	 0.500000 
Sr35	 0.828699	 0.201591	 0.500000 
Ti36	 0.666319	 0.295341	 0.000000 
Sr37	 0.764640	 0.340638	 0.000000 
Ti38	 0.710513	 0.371888	 0.500000 
Sr39	 0.720445	 0.264091	 0.500000 
Ti40	 0.558066	 0.357841	 0.000000 
Sr41	 0.656386	 0.403138	 0.000000 
Ti42	 0.602260	 0.434388	 0.500000 
Sr43	 0.612192	 0.326591	 0.500000 
Ti44	 0.449812	 0.420341	 0.000000 
Sr45	 0.548133	 0.465638	 0.000000 
Ti46	 0.494007	 0.496888	 0.500000 
Sr47	 0.503939	 0.389091	 0.500000 
Ti48	 0.341559	 0.482841	 0.000000 
Sr49	 0.439880	 0.528138	 0.000000 
Ti50	 0.385753	 0.559388	 0.500000 
Sr51	 0.395686	 0.451591	 0.500000 
Ti52	 0.233306	 0.545341	 0.000000 
Sr53	 0.331627	 0.590638	 0.000000 
Ti54	 0.277500	 0.621888	 0.500000 
Sr55	 0.287433	 0.514091	 0.500000 
Ti56	 0.125053	 0.607841	 0.000000 
Sr57	 0.223374	 0.653138	 0.000000 
Ti58	 0.169247	 0.684388	 0.500000 
Sr59	 0.179179	 0.576591	 0.500000 
Ti60	 0.882825	 0.170341	 0.000000 
Sr61	 0.115120	 0.715638	 0.000000 
Ti62	 0.927019	 0.246888	 0.500000 
Sr63	 0.070926	 0.639091	 0.500000 
Ti64	 0.862960	 0.385934	 0.000000 
Sr65	 0.961281	 0.431231	 0.000000 
Ti66	 0.907154	 0.462481	 0.500000 
Sr67	 0.917087	 0.354684	 0.500000 
Ti68	 0.754707	 0.448434	 0.000000 
Sr69	 0.853028	 0.493731	 0.000000 
Ti70	 0.798901	 0.524981	 0.500000 
Sr71	 0.808834	 0.417184	 0.500000 
Ti72	 0.646454	 0.510934	 0.000000 
Sr73	 0.744775	 0.556231	 0.000000 
Ti74	 0.690648	 0.587481	 0.500000 
Sr75	 0.700581	 0.479684	 0.500000 
Ti76	 0.538201	 0.573434	 0.000000 
Sr77	 0.636522	 0.618731	 0.000000 
Ti78	 0.582395	 0.649981	 0.500000 
Sr79	 0.592327	 0.542184	 0.500000 
Ti80	 0.429948	 0.635934	 0.000000 
Sr81	 0.528268	 0.681231	 0.000000 
Ti82	 0.474142	 0.712481	 0.500000 
Sr83	 0.484074	 0.604684	 0.500000 
Ti84	 0.321694	 0.698434	 0.000000 
Sr85	 0.420015	 0.743731	 0.000000 
Ti86	 0.365889	 0.774981	 0.500000 
Sr87	 0.375821	 0.667184	 0.500000 
Ti88	 0.213441	 0.760934	 0.000000 
Sr89	 0.311762	 0.806231	 0.000000 
Ti90	 0.257635	 0.837481	 0.500000 
Sr91	 0.267568	 0.729684	 0.500000 
Ti92	 0.971213	 0.323434	 0.000000 
Sr93	 0.203509	 0.868731	 0.000000 
Sr94	 0.159315	 0.792184	 0.500000 
Ti95	 0.951349	 0.539027	 0.000000 
Ti96	 0.995543	 0.615574	 0.500000 
Ti97	 0.843095	 0.601527	 0.000000 
Sr98	 0.941416	 0.646824	 0.000000 
Ti99	 0.887290	 0.678074	 0.500000 
Sr100	 0.897222	 0.570277	 0.500000 
Ti101	 0.734842	 0.664027	 0.000000 
Sr102	 0.833163	 0.709324	 0.000000 
Ti103	 0.779036	 0.740574	 0.500000 
Sr104	 0.788969	 0.632777	 0.500000 
Ti105	 0.626589	 0.726527	 0.000000 
Sr106	 0.724910	 0.771824	 0.000000 
Ti107	 0.670783	 0.803074	 0.500000 
Sr108	 0.680716	 0.695277	 0.500000 
Ti109	 0.518336	 0.789027	 0.000000 
Sr110	 0.616657	 0.834324	 0.000000 
Ti111	 0.562530	 0.865574	 0.500000 
Sr112	 0.572463	 0.757777	 0.500000 
Ti113	 0.410083	 0.851527	 0.000000 
Sr114	 0.508404	 0.896824	 0.000000 
Ti115	 0.454277	 0.928074	 0.500000 
Sr116	 0.464209	 0.820277	 0.500000 
Ti117	 0.301830	 0.914027	 0.000000 
Sr118	 0.400150	 0.959324	 0.000000 
Ti119	 0.346024	 0.990574	 0.500000 
Sr120	 0.355956	 0.882777	 0.500000 
Sr121	 0.247703	 0.945277	 0.500000 
Ti122	 0.641989	 0.003201	 0.500000 
Ti123	 0.931484	 0.754620	 0.000000 
Sr124	 0.587863	 0.034451	 0.000000 
Ti125	 0.533736	 0.065701	 0.500000 
Sr126	 0.985610	 0.723370	 0.500000 
Ti127	 0.823231	 0.817120	 0.000000 
Sr128	 0.479610	 0.096951	 0.000000 
Ti129	 0.425483	 0.128201	 0.500000 
Sr130	 0.877357	 0.785870	 0.500000 
Ti131	 0.714977	 0.879620	 0.000000 
Sr132	 0.371356	 0.159451	 0.000000 
Ti133	 0.317230	 0.190701	 0.500000 
Sr134	 0.769104	 0.848370	 0.500000 
Ti135	 0.606724	 0.942120	 0.000000 
Sr136	 0.263103	 0.221951	 0.000000 
Ti137	 0.208977	 0.253201	 0.500000 
Sr138	 0.660851	 0.910870	 0.500000 
Sr139	 0.154850	 0.284451	 0.000000 
Ti140	 0.100724	 0.315701	 0.500000 
Sr141	 0.552598	 0.973370	 0.500000 
Sr142	 0.046597	 0.346951	 0.000000 
#                 ---end-of-data-block---
