data_Pt structure along [001] nx 5 ny 8 nz 1
_cell_length_a               31.240000
_cell_length_b               31.240000
_cell_length_c               5.543717
_cell_angle_alpha          90.000000
_cell_angle_beta           90.000000
_cell_angle_gamma          90.000000
_symmetry_cell_setting          Triclinic
_symmetry_space_group_name_H-M 'P 1' 
loop_
_atom_site_label
_atom_site_fract_x
_atom_site_fract_y
_atom_site_fract_z
Ti1	 0.843222	 0.120760	 0.000000 
Sr2	 0.926469	 0.189961	 0.000000 
Ti3	 0.866099	 0.206137	 0.500000 
Sr4	 0.903593	 0.104584	 0.500000 
Ti5	 0.722482	 0.153113	 0.000000 
Sr6	 0.805729	 0.222313	 0.000000 
Ti7	 0.745358	 0.238489	 0.500000 
Sr8	 0.782852	 0.136936	 0.500000 
Ti9	 0.601741	 0.185465	 0.000000 
Sr10	 0.684988	 0.254665	 0.000000 
Ti11	 0.624618	 0.270842	 0.500000 
Sr12	 0.662111	 0.169289	 0.500000 
Ti13	 0.481000	 0.217817	 0.000000 
Sr14	 0.564247	 0.287018	 0.000000 
Ti15	 0.503877	 0.303194	 0.500000 
Sr16	 0.541371	 0.201641	 0.500000 
Ti17	 0.360259	 0.250170	 0.000000 
Sr18	 0.443506	 0.319370	 0.000000 
Ti19	 0.383136	 0.335546	 0.500000 
Sr20	 0.420630	 0.233994	 0.500000 
Ti21	 0.239519	 0.282522	 0.000000 
Sr22	 0.322766	 0.351723	 0.000000 
Ti23	 0.262395	 0.367899	 0.500000 
Sr24	 0.299889	 0.266346	 0.500000 
Ti25	 0.118778	 0.314875	 0.000000 
Sr26	 0.202025	 0.384075	 0.000000 
Ti27	 0.141655	 0.400251	 0.500000 
Sr28	 0.179148	 0.298698	 0.500000 
Sr29	 0.081284	 0.416427	 0.000000 
Ti30	 0.020914	 0.432603	 0.500000 
Sr31	 0.058408	 0.331051	 0.500000 
Ti32	 0.888976	 0.291513	 0.000000 
Sr33	 0.972223	 0.360714	 0.000000 
Ti34	 0.911852	 0.376890	 0.500000 
Sr35	 0.949346	 0.275337	 0.500000 
Ti36	 0.768235	 0.323866	 0.000000 
Sr37	 0.851482	 0.393066	 0.000000 
Ti38	 0.791111	 0.409242	 0.500000 
Sr39	 0.828605	 0.307690	 0.500000 
Ti40	 0.647494	 0.356218	 0.000000 
Sr41	 0.730741	 0.425419	 0.000000 
Ti42	 0.670371	 0.441595	 0.500000 
Sr43	 0.707864	 0.340042	 0.500000 
Ti44	 0.526753	 0.388571	 0.000000 
Sr45	 0.610000	 0.457771	 0.000000 
Ti46	 0.549630	 0.473947	 0.500000 
Sr47	 0.587124	 0.372394	 0.500000 
Ti48	 0.406013	 0.420923	 0.000000 
Sr49	 0.489260	 0.490123	 0.000000 
Ti50	 0.428889	 0.506300	 0.500000 
Sr51	 0.466383	 0.404747	 0.500000 
Ti52	 0.285272	 0.453275	 0.000000 
Sr53	 0.368519	 0.522476	 0.000000 
Ti54	 0.308149	 0.538652	 0.500000 
Sr55	 0.345642	 0.437099	 0.500000 
Ti56	 0.164531	 0.485628	 0.000000 
Sr57	 0.247778	 0.554828	 0.000000 
Ti58	 0.187408	 0.571004	 0.500000 
Sr59	 0.224902	 0.469451	 0.500000 
Ti60	 0.043790	 0.517980	 0.000000 
Sr61	 0.127037	 0.587180	 0.000000 
Ti62	 0.066667	 0.603357	 0.500000 
Sr63	 0.104161	 0.501804	 0.500000 
Ti64	 0.934729	 0.462267	 0.000000 
Ti65	 0.957605	 0.547643	 0.500000 
Sr66	 0.995099	 0.446090	 0.500000 
Ti67	 0.813988	 0.494619	 0.000000 
Sr68	 0.897235	 0.563819	 0.000000 
Ti69	 0.836865	 0.579996	 0.500000 
Sr70	 0.874358	 0.478443	 0.500000 
Ti71	 0.693247	 0.526971	 0.000000 
Sr72	 0.776494	 0.596172	 0.000000 
Ti73	 0.716124	 0.612348	 0.500000 
Sr74	 0.753618	 0.510795	 0.500000 
Ti75	 0.572507	 0.559324	 0.000000 
Sr76	 0.655754	 0.628524	 0.000000 
Ti77	 0.595383	 0.644700	 0.500000 
Sr78	 0.632877	 0.543148	 0.500000 
Ti79	 0.451766	 0.591676	 0.000000 
Sr80	 0.535013	 0.660876	 0.000000 
Ti81	 0.474642	 0.677053	 0.500000 
Sr82	 0.512136	 0.575500	 0.500000 
Ti83	 0.331025	 0.624028	 0.000000 
Sr84	 0.414272	 0.693229	 0.000000 
Ti85	 0.353902	 0.709405	 0.500000 
Sr86	 0.391395	 0.607852	 0.500000 
Ti87	 0.210284	 0.656381	 0.000000 
Sr88	 0.293531	 0.725581	 0.000000 
Ti89	 0.233161	 0.741757	 0.500000 
Sr90	 0.270655	 0.640205	 0.500000 
Ti91	 0.089544	 0.688733	 0.000000 
Sr92	 0.172791	 0.757934	 0.000000 
Ti93	 0.112420	 0.774110	 0.500000 
Sr94	 0.149914	 0.672557	 0.500000 
Ti95	 0.980482	 0.633020	 0.000000 
Ti96	 0.859741	 0.665372	 0.000000 
Sr97	 0.942988	 0.734573	 0.000000 
Ti98	 0.882618	 0.750749	 0.500000 
Sr99	 0.920112	 0.649196	 0.500000 
Ti100	 0.739000	 0.697725	 0.000000 
Sr101	 0.822247	 0.766925	 0.000000 
Ti102	 0.761877	 0.783101	 0.500000 
Sr103	 0.799371	 0.681548	 0.500000 
Ti104	 0.618260	 0.730077	 0.000000 
Sr105	 0.701507	 0.799277	 0.000000 
Ti106	 0.641136	 0.815453	 0.500000 
Sr107	 0.678630	 0.713901	 0.500000 
Ti108	 0.497519	 0.762429	 0.000000 
Sr109	 0.580766	 0.831630	 0.000000 
Ti110	 0.520396	 0.847806	 0.500000 
Sr111	 0.557889	 0.746253	 0.500000 
Ti112	 0.376778	 0.794782	 0.000000 
Sr113	 0.460025	 0.863982	 0.000000 
Ti114	 0.399655	 0.880158	 0.500000 
Sr115	 0.437149	 0.778605	 0.500000 
Ti116	 0.256038	 0.827134	 0.000000 
Sr117	 0.339285	 0.896334	 0.000000 
Ti118	 0.278914	 0.912511	 0.500000 
Sr119	 0.316408	 0.810958	 0.500000 
Ti120	 0.135297	 0.859486	 0.000000 
Sr121	 0.218544	 0.928687	 0.000000 
Ti122	 0.158173	 0.944863	 0.500000 
Sr123	 0.195667	 0.843310	 0.500000 
Sr124	 0.880716	 0.019207	 0.000000 
Ti125	 0.820346	 0.035384	 0.500000 
Ti126	 0.905494	 0.836125	 0.000000 
Sr127	 0.759975	 0.051560	 0.000000 
Ti128	 0.699605	 0.067736	 0.500000 
Sr129	 0.965865	 0.819949	 0.500000 
Ti130	 0.784754	 0.868478	 0.000000 
Sr131	 0.639235	 0.083912	 0.000000 
Ti132	 0.578864	 0.100088	 0.500000 
Sr133	 0.845124	 0.852301	 0.500000 
Ti134	 0.664013	 0.900830	 0.000000 
Sr135	 0.518494	 0.116265	 0.000000 
Ti136	 0.458124	 0.132441	 0.500000 
Sr137	 0.724383	 0.884654	 0.500000 
Ti138	 0.543272	 0.933182	 0.000000 
Sr139	 0.397753	 0.148617	 0.000000 
Ti140	 0.337383	 0.164793	 0.500000 
Sr141	 0.603643	 0.917006	 0.500000 
Ti142	 0.422531	 0.965535	 0.000000 
Sr143	 0.277013	 0.180969	 0.000000 
Ti144	 0.216642	 0.197146	 0.500000 
Sr145	 0.482902	 0.949359	 0.500000 
Ti146	 0.301791	 0.997887	 0.000000 
Sr147	 0.156272	 0.213322	 0.000000 
Ti148	 0.095901	 0.229498	 0.500000 
Sr149	 0.362161	 0.981711	 0.500000 
Sr150	 0.035531	 0.245674	 0.000000 
#                 ---end-of-data-block---
