data_Pt structure along [001] nx 5 ny 8 nz 1
_cell_length_a               31.240000
_cell_length_b               31.240000
_cell_length_c               5.543717
_cell_angle_alpha          90.000000
_cell_angle_beta           90.000000
_cell_angle_gamma          90.000000
_symmetry_cell_setting          Triclinic
_symmetry_space_group_name_H-M 'P 1' 
loop_
_atom_site_label
_atom_site_fract_x
_atom_site_fract_y
_atom_site_fract_z
Sr1	 0.878306	 0.045018	 0.000000 
Ti2	 0.817935	 0.061195	 0.500000 
Ti3	 0.674318	 0.008170	 0.000000 
Sr4	 0.757565	 0.077371	 0.000000 
Ti5	 0.697195	 0.093547	 0.500000 
Ti6	 0.553577	 0.040523	 0.000000 
Sr7	 0.636824	 0.109723	 0.000000 
Ti8	 0.576454	 0.125899	 0.500000 
Sr9	 0.613948	 0.024347	 0.500000 
Ti10	 0.432837	 0.072875	 0.000000 
Sr11	 0.516084	 0.142076	 0.000000 
Ti12	 0.455713	 0.158252	 0.500000 
Sr13	 0.493207	 0.056699	 0.500000 
Ti14	 0.312096	 0.105228	 0.000000 
Sr15	 0.395343	 0.174428	 0.000000 
Ti16	 0.334972	 0.190604	 0.500000 
Sr17	 0.372466	 0.089051	 0.500000 
Ti18	 0.191355	 0.137580	 0.000000 
Sr19	 0.274602	 0.206780	 0.000000 
Ti20	 0.214232	 0.222957	 0.500000 
Sr21	 0.251726	 0.121404	 0.500000 
Ti22	 0.070614	 0.169932	 0.000000 
Sr23	 0.153861	 0.239133	 0.000000 
Ti24	 0.093491	 0.255309	 0.500000 
Sr25	 0.130985	 0.153756	 0.500000 
Sr26	 0.033121	 0.271485	 0.000000 
Sr27	 0.010244	 0.186109	 0.500000 
Ti28	 0.840812	 0.146571	 0.000000 
Sr29	 0.924059	 0.215772	 0.000000 
Ti30	 0.863689	 0.231948	 0.500000 
Sr31	 0.901182	 0.130395	 0.500000 
Ti32	 0.720071	 0.178924	 0.000000 
Sr33	 0.803318	 0.248124	 0.000000 
Ti34	 0.742948	 0.264300	 0.500000 
Sr35	 0.780442	 0.162747	 0.500000 
Ti36	 0.599330	 0.211276	 0.000000 
Sr37	 0.682577	 0.280476	 0.000000 
Ti38	 0.622207	 0.296653	 0.500000 
Sr39	 0.659701	 0.195100	 0.500000 
Ti40	 0.478590	 0.243628	 0.000000 
Sr41	 0.561837	 0.312829	 0.000000 
Ti42	 0.501466	 0.329005	 0.500000 
Sr43	 0.538960	 0.227452	 0.500000 
Ti44	 0.357849	 0.275981	 0.000000 
Sr45	 0.441096	 0.345181	 0.000000 
Ti46	 0.380726	 0.361357	 0.500000 
Sr47	 0.418219	 0.259805	 0.500000 
Ti48	 0.237108	 0.308333	 0.000000 
Sr49	 0.320355	 0.377534	 0.000000 
Ti50	 0.259985	 0.393710	 0.500000 
Sr51	 0.297479	 0.292157	 0.500000 
Ti52	 0.116368	 0.340686	 0.000000 
Sr53	 0.199615	 0.409886	 0.000000 
Ti54	 0.139244	 0.426062	 0.500000 
Sr55	 0.176738	 0.324509	 0.500000 
Sr56	 0.078874	 0.442238	 0.000000 
Ti57	 0.018503	 0.458414	 0.500000 
Sr58	 0.055997	 0.356862	 0.500000 
Ti59	 0.886565	 0.317324	 0.000000 
Sr60	 0.969812	 0.386525	 0.000000 
Ti61	 0.909442	 0.402701	 0.500000 
Sr62	 0.946935	 0.301148	 0.500000 
Ti63	 0.765824	 0.349677	 0.000000 
Sr64	 0.849071	 0.418877	 0.000000 
Ti65	 0.788701	 0.435053	 0.500000 
Sr66	 0.826195	 0.333501	 0.500000 
Ti67	 0.645084	 0.382029	 0.000000 
Sr68	 0.728331	 0.451230	 0.000000 
Ti69	 0.667960	 0.467406	 0.500000 
Sr70	 0.705454	 0.365853	 0.500000 
Ti71	 0.524343	 0.414382	 0.000000 
Sr72	 0.607590	 0.483582	 0.000000 
Ti73	 0.547220	 0.499758	 0.500000 
Sr74	 0.584713	 0.398205	 0.500000 
Ti75	 0.403602	 0.446734	 0.000000 
Sr76	 0.486849	 0.515934	 0.000000 
Ti77	 0.426479	 0.532111	 0.500000 
Sr78	 0.463973	 0.430558	 0.500000 
Ti79	 0.282861	 0.479086	 0.000000 
Sr80	 0.366108	 0.548287	 0.000000 
Ti81	 0.305738	 0.564463	 0.500000 
Sr82	 0.343232	 0.462910	 0.500000 
Ti83	 0.162121	 0.511439	 0.000000 
Sr84	 0.245368	 0.580639	 0.000000 
Ti85	 0.184997	 0.596815	 0.500000 
Sr86	 0.222491	 0.495263	 0.500000 
Ti87	 0.041380	 0.543791	 0.000000 
Sr88	 0.124627	 0.612991	 0.000000 
Ti89	 0.064257	 0.629168	 0.500000 
Sr90	 0.101750	 0.527615	 0.500000 
Ti91	 0.932318	 0.488078	 0.000000 
Ti92	 0.955195	 0.573454	 0.500000 
Sr93	 0.992689	 0.471901	 0.500000 
Ti94	 0.811578	 0.520430	 0.000000 
Sr95	 0.894825	 0.589630	 0.000000 
Ti96	 0.834454	 0.605807	 0.500000 
Sr97	 0.871948	 0.504254	 0.500000 
Ti98	 0.690837	 0.552782	 0.000000 
Sr99	 0.774084	 0.621983	 0.000000 
Ti100	 0.713713	 0.638159	 0.500000 
Sr101	 0.751207	 0.536606	 0.500000 
Ti102	 0.570096	 0.585135	 0.000000 
Sr103	 0.653343	 0.654335	 0.000000 
Ti104	 0.592973	 0.670511	 0.500000 
Sr105	 0.630466	 0.568959	 0.500000 
Ti106	 0.449355	 0.617487	 0.000000 
Sr107	 0.532602	 0.686688	 0.000000 
Ti108	 0.472232	 0.702864	 0.500000 
Sr109	 0.509726	 0.601311	 0.500000 
Ti110	 0.328615	 0.649839	 0.000000 
Sr111	 0.411862	 0.719040	 0.000000 
Ti112	 0.351491	 0.735216	 0.500000 
Sr113	 0.388985	 0.633663	 0.500000 
Ti114	 0.207874	 0.682192	 0.000000 
Sr115	 0.291121	 0.751392	 0.000000 
Ti116	 0.230751	 0.767568	 0.500000 
Sr117	 0.268244	 0.666016	 0.500000 
Ti118	 0.087133	 0.714544	 0.000000 
Sr119	 0.170380	 0.783745	 0.000000 
Ti120	 0.110010	 0.799921	 0.500000 
Sr121	 0.147504	 0.698368	 0.500000 
Ti122	 0.978071	 0.658831	 0.000000 
Ti123	 0.857331	 0.691183	 0.000000 
Sr124	 0.940578	 0.760384	 0.000000 
Ti125	 0.880207	 0.776560	 0.500000 
Sr126	 0.917701	 0.675007	 0.500000 
Ti127	 0.736590	 0.723536	 0.000000 
Sr128	 0.819837	 0.792736	 0.000000 
Ti129	 0.759467	 0.808912	 0.500000 
Sr130	 0.796960	 0.707359	 0.500000 
Ti131	 0.615849	 0.755888	 0.000000 
Sr132	 0.699096	 0.825088	 0.000000 
Ti133	 0.638726	 0.841264	 0.500000 
Sr134	 0.676220	 0.739712	 0.500000 
Ti135	 0.495109	 0.788240	 0.000000 
Sr136	 0.578356	 0.857441	 0.000000 
Ti137	 0.517985	 0.873617	 0.500000 
Sr138	 0.555479	 0.772064	 0.500000 
Ti139	 0.374368	 0.820593	 0.000000 
Sr140	 0.457615	 0.889793	 0.000000 
Ti141	 0.397244	 0.905969	 0.500000 
Sr142	 0.434738	 0.804416	 0.500000 
Ti143	 0.253627	 0.852945	 0.000000 
Sr144	 0.336874	 0.922145	 0.000000 
Ti145	 0.276504	 0.938322	 0.500000 
Sr146	 0.313997	 0.836769	 0.500000 
Ti147	 0.132886	 0.885297	 0.000000 
Sr148	 0.216133	 0.954498	 0.000000 
Ti149	 0.155763	 0.970674	 0.500000 
Sr150	 0.193257	 0.869121	 0.500000 
#                 ---end-of-data-block---
