data_Pt structure along [001] nx 5 ny 8 nz 1
_cell_length_a               31.240000
_cell_length_b               31.240000
_cell_length_c               5.543717
_cell_angle_alpha          90.000000
_cell_angle_beta           90.000000
_cell_angle_gamma          90.000000
_symmetry_cell_setting          Triclinic
_symmetry_space_group_name_H-M 'P 1' 
loop_
_atom_site_label
_atom_site_fract_x
_atom_site_fract_y
_atom_site_fract_z
Ti1	 0.783341	 0.119068	 0.000000 
Sr2	 0.866588	 0.188268	 0.000000 
Ti3	 0.806217	 0.204444	 0.500000 
Sr4	 0.843711	 0.102892	 0.500000 
Ti5	 0.662600	 0.151420	 0.000000 
Sr6	 0.745847	 0.220621	 0.000000 
Ti7	 0.685477	 0.236797	 0.500000 
Sr8	 0.722970	 0.135244	 0.500000 
Ti9	 0.541859	 0.183772	 0.000000 
Sr10	 0.625106	 0.252973	 0.000000 
Ti11	 0.564736	 0.269149	 0.500000 
Sr12	 0.602230	 0.167596	 0.500000 
Ti13	 0.421119	 0.216125	 0.000000 
Sr14	 0.504365	 0.285325	 0.000000 
Ti15	 0.443995	 0.301501	 0.500000 
Sr16	 0.481489	 0.199949	 0.500000 
Ti17	 0.300378	 0.248477	 0.000000 
Sr18	 0.383625	 0.317678	 0.000000 
Ti19	 0.323254	 0.333854	 0.500000 
Sr20	 0.360748	 0.232301	 0.500000 
Ti21	 0.179637	 0.280830	 0.000000 
Sr22	 0.262884	 0.350030	 0.000000 
Ti23	 0.202514	 0.366206	 0.500000 
Sr24	 0.240007	 0.264653	 0.500000 
Ti25	 0.058896	 0.313182	 0.000000 
Sr26	 0.142143	 0.382382	 0.000000 
Ti27	 0.081773	 0.398559	 0.500000 
Sr28	 0.119267	 0.297006	 0.500000 
Ti29	 0.904081	 0.086715	 0.000000 
Sr30	 0.021403	 0.414735	 0.000000 
Ti31	 0.926958	 0.172092	 0.500000 
Ti32	 0.829094	 0.289821	 0.000000 
Sr33	 0.912341	 0.359021	 0.000000 
Ti34	 0.851970	 0.375197	 0.500000 
Sr35	 0.889464	 0.273645	 0.500000 
Ti36	 0.708353	 0.322173	 0.000000 
Sr37	 0.791600	 0.391374	 0.000000 
Ti38	 0.731230	 0.407550	 0.500000 
Sr39	 0.768724	 0.305997	 0.500000 
Ti40	 0.587612	 0.354526	 0.000000 
Sr41	 0.670859	 0.423726	 0.000000 
Ti42	 0.610489	 0.439902	 0.500000 
Sr43	 0.647983	 0.338349	 0.500000 
Ti44	 0.466872	 0.386878	 0.000000 
Sr45	 0.550119	 0.456078	 0.000000 
Ti46	 0.489748	 0.472255	 0.500000 
Sr47	 0.527242	 0.370702	 0.500000 
Ti48	 0.346131	 0.419230	 0.000000 
Sr49	 0.429378	 0.488431	 0.000000 
Ti50	 0.369008	 0.504607	 0.500000 
Sr51	 0.406501	 0.403054	 0.500000 
Ti52	 0.225390	 0.451583	 0.000000 
Sr53	 0.308637	 0.520783	 0.000000 
Ti54	 0.248267	 0.536959	 0.500000 
Sr55	 0.285761	 0.435407	 0.500000 
Ti56	 0.104650	 0.483935	 0.000000 
Sr57	 0.187896	 0.553136	 0.000000 
Ti58	 0.127526	 0.569312	 0.500000 
Sr59	 0.165020	 0.467759	 0.500000 
Ti60	 0.949835	 0.257469	 0.000000 
Sr61	 0.067156	 0.585488	 0.000000 
Ti62	 0.972711	 0.342845	 0.500000 
Sr63	 0.044279	 0.500111	 0.500000 
Ti64	 0.874847	 0.460574	 0.000000 
Sr65	 0.958094	 0.529774	 0.000000 
Ti66	 0.897724	 0.545951	 0.500000 
Sr67	 0.935217	 0.444398	 0.500000 
Ti68	 0.754106	 0.492926	 0.000000 
Sr69	 0.837353	 0.562127	 0.000000 
Ti70	 0.776983	 0.578303	 0.500000 
Sr71	 0.814477	 0.476750	 0.500000 
Ti72	 0.633366	 0.525279	 0.000000 
Sr73	 0.716613	 0.594479	 0.000000 
Ti74	 0.656242	 0.610655	 0.500000 
Sr75	 0.693736	 0.509103	 0.500000 
Ti76	 0.512625	 0.557631	 0.000000 
Sr77	 0.595872	 0.626832	 0.000000 
Ti78	 0.535501	 0.643008	 0.500000 
Sr79	 0.572995	 0.541455	 0.500000 
Ti80	 0.391884	 0.589984	 0.000000 
Sr81	 0.475131	 0.659184	 0.000000 
Ti82	 0.414761	 0.675360	 0.500000 
Sr83	 0.452255	 0.573807	 0.500000 
Ti84	 0.271143	 0.622336	 0.000000 
Sr85	 0.354390	 0.691536	 0.000000 
Ti86	 0.294020	 0.707713	 0.500000 
Sr87	 0.331514	 0.606160	 0.500000 
Ti88	 0.150403	 0.654688	 0.000000 
Sr89	 0.233650	 0.723889	 0.000000 
Ti90	 0.173279	 0.740065	 0.500000 
Sr91	 0.210773	 0.638512	 0.500000 
Ti92	 0.995588	 0.428222	 0.000000 
Sr93	 0.112909	 0.756241	 0.000000 
Sr94	 0.090032	 0.670865	 0.500000 
Ti95	 0.920600	 0.631327	 0.000000 
Ti96	 0.943477	 0.716704	 0.500000 
Sr97	 0.980971	 0.615151	 0.500000 
Ti98	 0.799859	 0.663680	 0.000000 
Sr99	 0.883106	 0.732880	 0.000000 
Ti100	 0.822736	 0.749056	 0.500000 
Sr101	 0.860230	 0.647503	 0.500000 
Ti102	 0.679119	 0.696032	 0.000000 
Sr103	 0.762366	 0.765232	 0.000000 
Ti104	 0.701995	 0.781409	 0.500000 
Sr105	 0.739489	 0.679856	 0.500000 
Ti106	 0.558378	 0.728384	 0.000000 
Sr107	 0.641625	 0.797585	 0.000000 
Ti108	 0.581255	 0.813761	 0.500000 
Sr109	 0.618748	 0.712208	 0.500000 
Ti110	 0.437637	 0.760737	 0.000000 
Sr111	 0.520884	 0.829937	 0.000000 
Ti112	 0.460514	 0.846113	 0.500000 
Sr113	 0.498008	 0.744561	 0.500000 
Ti114	 0.316897	 0.793089	 0.000000 
Sr115	 0.400144	 0.862290	 0.000000 
Ti116	 0.339773	 0.878466	 0.500000 
Sr117	 0.377267	 0.776913	 0.500000 
Ti118	 0.196156	 0.825442	 0.000000 
Sr119	 0.279403	 0.894642	 0.000000 
Ti120	 0.219032	 0.910818	 0.500000 
Sr121	 0.256526	 0.809265	 0.500000 
Sr122	 0.158662	 0.926994	 0.000000 
Sr123	 0.135785	 0.841618	 0.500000 
Ti124	 0.966353	 0.802080	 0.000000 
Sr125	 0.820834	 0.017515	 0.000000 
Ti126	 0.760464	 0.033691	 0.500000 
Ti127	 0.845613	 0.834433	 0.000000 
Sr128	 0.700094	 0.049867	 0.000000 
Ti129	 0.639723	 0.066044	 0.500000 
Sr130	 0.905983	 0.818257	 0.500000 
Ti131	 0.724872	 0.866785	 0.000000 
Sr132	 0.579353	 0.082220	 0.000000 
Ti133	 0.518983	 0.098396	 0.500000 
Sr134	 0.785242	 0.850609	 0.500000 
Ti135	 0.604131	 0.899138	 0.000000 
Sr136	 0.458612	 0.114572	 0.000000 
Ti137	 0.398242	 0.130748	 0.500000 
Sr138	 0.664502	 0.882961	 0.500000 
Ti139	 0.483390	 0.931490	 0.000000 
Sr140	 0.337872	 0.146924	 0.000000 
Ti141	 0.277501	 0.163101	 0.500000 
Sr142	 0.543761	 0.915314	 0.500000 
Ti143	 0.362650	 0.963842	 0.000000 
Sr144	 0.217131	 0.179277	 0.000000 
Ti145	 0.156760	 0.195453	 0.500000 
Sr146	 0.423020	 0.947666	 0.500000 
Ti147	 0.241909	 0.996195	 0.000000 
Sr148	 0.096390	 0.211629	 0.000000 
Ti149	 0.036020	 0.227805	 0.500000 
Sr150	 0.302279	 0.980019	 0.500000 
Ti151	 0.881205	 0.001339	 0.500000 
#                 ---end-of-data-block---
