data_Pt structure along [001] nx 5 ny 8 nz 1
_cell_length_a               31.240000
_cell_length_b               31.240000
_cell_length_c               5.543717
_cell_angle_alpha          90.000000
_cell_angle_beta           90.000000
_cell_angle_gamma          90.000000
_symmetry_cell_setting          Triclinic
_symmetry_space_group_name_H-M 'P 1' 
loop_
_atom_site_label
_atom_site_fract_x
_atom_site_fract_y
_atom_site_fract_z
Ti1	 0.718929	 0.069611	 0.000000 
Sr2	 0.802176	 0.138812	 0.000000 
Ti3	 0.741805	 0.154988	 0.500000 
Sr4	 0.779299	 0.053435	 0.500000 
Ti5	 0.598188	 0.101963	 0.000000 
Sr6	 0.681435	 0.171164	 0.000000 
Ti7	 0.621065	 0.187340	 0.500000 
Sr8	 0.658559	 0.085787	 0.500000 
Ti9	 0.477447	 0.134316	 0.000000 
Sr10	 0.560694	 0.203516	 0.000000 
Ti11	 0.500324	 0.219692	 0.500000 
Sr12	 0.537818	 0.118140	 0.500000 
Ti13	 0.356707	 0.166668	 0.000000 
Sr14	 0.439954	 0.235869	 0.000000 
Ti15	 0.379583	 0.252045	 0.500000 
Sr16	 0.417077	 0.150492	 0.500000 
Ti17	 0.235966	 0.199021	 0.000000 
Sr18	 0.319213	 0.268221	 0.000000 
Ti19	 0.258843	 0.284397	 0.500000 
Sr20	 0.296336	 0.182844	 0.500000 
Ti21	 0.115225	 0.231373	 0.000000 
Sr22	 0.198472	 0.300573	 0.000000 
Ti23	 0.138102	 0.316750	 0.500000 
Sr24	 0.175596	 0.215197	 0.500000 
Sr25	 0.077731	 0.332926	 0.000000 
Ti26	 0.017361	 0.349102	 0.500000 
Sr27	 0.054855	 0.247549	 0.500000 
Ti28	 0.839670	 0.037259	 0.000000 
Ti29	 0.862546	 0.122635	 0.500000 
Ti30	 0.764682	 0.240364	 0.000000 
Sr31	 0.847929	 0.309565	 0.000000 
Ti32	 0.787559	 0.325741	 0.500000 
Sr33	 0.825052	 0.224188	 0.500000 
Ti34	 0.643941	 0.272717	 0.000000 
Sr35	 0.727188	 0.341917	 0.000000 
Ti36	 0.666818	 0.358093	 0.500000 
Sr37	 0.704312	 0.256540	 0.500000 
Ti38	 0.523201	 0.305069	 0.000000 
Sr39	 0.606448	 0.374269	 0.000000 
Ti40	 0.546077	 0.390446	 0.500000 
Sr41	 0.583571	 0.288893	 0.500000 
Ti42	 0.402460	 0.337421	 0.000000 
Sr43	 0.485707	 0.406622	 0.000000 
Ti44	 0.425336	 0.422798	 0.500000 
Sr45	 0.462830	 0.321245	 0.500000 
Ti46	 0.281719	 0.369774	 0.000000 
Sr47	 0.364966	 0.438974	 0.000000 
Ti48	 0.304596	 0.455150	 0.500000 
Sr49	 0.342090	 0.353598	 0.500000 
Ti50	 0.160978	 0.402126	 0.000000 
Sr51	 0.244225	 0.471327	 0.000000 
Ti52	 0.183855	 0.487503	 0.500000 
Sr53	 0.221349	 0.385950	 0.500000 
Ti54	 0.040238	 0.434479	 0.000000 
Sr55	 0.123485	 0.503679	 0.000000 
Ti56	 0.063114	 0.519855	 0.500000 
Sr57	 0.100608	 0.418302	 0.500000 
Ti58	 0.885423	 0.208012	 0.000000 
Sr59	 0.002744	 0.536031	 0.000000 
Ti60	 0.908299	 0.293388	 0.500000 
Ti61	 0.810435	 0.411117	 0.000000 
Sr62	 0.893682	 0.480318	 0.000000 
Ti63	 0.833312	 0.496494	 0.500000 
Sr64	 0.870806	 0.394941	 0.500000 
Ti65	 0.689694	 0.443470	 0.000000 
Sr66	 0.772941	 0.512670	 0.000000 
Ti67	 0.712571	 0.528846	 0.500000 
Sr68	 0.750065	 0.427294	 0.500000 
Ti69	 0.568954	 0.475822	 0.000000 
Sr70	 0.652201	 0.545023	 0.000000 
Ti71	 0.591830	 0.561199	 0.500000 
Sr72	 0.629324	 0.459646	 0.500000 
Ti73	 0.448213	 0.508175	 0.000000 
Sr74	 0.531460	 0.577375	 0.000000 
Ti75	 0.471090	 0.593551	 0.500000 
Sr76	 0.508583	 0.491998	 0.500000 
Ti77	 0.327472	 0.540527	 0.000000 
Sr78	 0.410719	 0.609727	 0.000000 
Ti79	 0.350349	 0.625904	 0.500000 
Sr80	 0.387843	 0.524351	 0.500000 
Ti81	 0.206732	 0.572879	 0.000000 
Sr82	 0.289979	 0.642080	 0.000000 
Ti83	 0.229608	 0.658256	 0.500000 
Sr84	 0.267102	 0.556703	 0.500000 
Ti85	 0.085991	 0.605232	 0.000000 
Sr86	 0.169238	 0.674432	 0.000000 
Ti87	 0.108867	 0.690608	 0.500000 
Sr88	 0.146361	 0.589056	 0.500000 
Ti89	 0.931176	 0.378765	 0.000000 
Sr90	 0.048497	 0.706785	 0.000000 
Ti91	 0.954053	 0.464142	 0.500000 
Sr92	 0.025620	 0.621408	 0.500000 
Ti93	 0.856188	 0.581871	 0.000000 
Sr94	 0.939435	 0.651071	 0.000000 
Ti95	 0.879065	 0.667247	 0.500000 
Sr96	 0.916559	 0.565694	 0.500000 
Ti97	 0.735448	 0.614223	 0.000000 
Sr98	 0.818695	 0.683423	 0.000000 
Ti99	 0.758324	 0.699600	 0.500000 
Sr100	 0.795818	 0.598047	 0.500000 
Ti101	 0.614707	 0.646575	 0.000000 
Sr102	 0.697954	 0.715776	 0.000000 
Ti103	 0.637584	 0.731952	 0.500000 
Sr104	 0.675077	 0.630399	 0.500000 
Ti105	 0.493966	 0.678928	 0.000000 
Sr106	 0.577213	 0.748128	 0.000000 
Ti107	 0.516843	 0.764304	 0.500000 
Sr108	 0.554337	 0.662752	 0.500000 
Ti109	 0.373225	 0.711280	 0.000000 
Sr110	 0.456472	 0.780481	 0.000000 
Ti111	 0.396102	 0.796657	 0.500000 
Sr112	 0.433596	 0.695104	 0.500000 
Ti113	 0.252485	 0.743633	 0.000000 
Sr114	 0.335732	 0.812833	 0.000000 
Ti115	 0.275361	 0.829009	 0.500000 
Sr116	 0.312855	 0.727456	 0.500000 
Ti117	 0.131744	 0.775985	 0.000000 
Sr118	 0.214991	 0.845185	 0.000000 
Ti119	 0.154621	 0.861362	 0.500000 
Sr120	 0.192114	 0.759809	 0.500000 
Ti121	 0.976929	 0.549518	 0.000000 
Sr122	 0.094250	 0.877538	 0.000000 
Ti123	 0.999806	 0.634895	 0.500000 
Sr124	 0.071374	 0.792161	 0.500000 
Ti125	 0.901942	 0.752624	 0.000000 
Sr126	 0.985189	 0.821824	 0.000000 
Ti127	 0.924818	 0.838000	 0.500000 
Sr128	 0.962312	 0.736448	 0.500000 
Ti129	 0.781201	 0.784976	 0.000000 
Sr130	 0.864448	 0.854177	 0.000000 
Ti131	 0.804077	 0.870353	 0.500000 
Sr132	 0.841571	 0.768800	 0.500000 
Ti133	 0.660460	 0.817329	 0.000000 
Sr134	 0.743707	 0.886529	 0.000000 
Ti135	 0.683337	 0.902705	 0.500000 
Sr136	 0.720830	 0.801152	 0.500000 
Ti137	 0.539719	 0.849681	 0.000000 
Sr138	 0.622966	 0.918881	 0.000000 
Ti139	 0.562596	 0.935058	 0.500000 
Sr140	 0.600090	 0.833505	 0.500000 
Ti141	 0.418979	 0.882033	 0.000000 
Sr142	 0.502226	 0.951234	 0.000000 
Ti143	 0.441855	 0.967410	 0.500000 
Sr144	 0.479349	 0.865857	 0.500000 
Ti145	 0.298238	 0.914386	 0.000000 
Sr146	 0.381485	 0.983586	 0.000000 
Ti147	 0.321115	 0.999762	 0.500000 
Sr148	 0.358608	 0.898210	 0.500000 
Ti149	 0.177497	 0.946738	 0.000000 
Sr150	 0.237868	 0.930562	 0.500000 
Sr151	 0.117127	 0.962914	 0.500000 
#                 ---end-of-data-block---
