data_Pt structure along [001] nx 5 ny 8 nz 1
_cell_length_a               31.240000
_cell_length_b               31.240000
_cell_length_c               5.543717
_cell_angle_alpha          90.000000
_cell_angle_beta           90.000000
_cell_angle_gamma          90.000000
_symmetry_cell_setting          Triclinic
_symmetry_space_group_name_H-M 'P 1' 
loop_
_atom_site_label
_atom_site_fract_x
_atom_site_fract_y
_atom_site_fract_z
Ti1	 0.763676	 0.018906	 0.000000 
Sr2	 0.846923	 0.088106	 0.000000 
Ti3	 0.786553	 0.104283	 0.500000 
Sr4	 0.824047	 0.002730	 0.500000 
Ti5	 0.642935	 0.051258	 0.000000 
Sr6	 0.726182	 0.120459	 0.000000 
Ti7	 0.665812	 0.136635	 0.500000 
Sr8	 0.703306	 0.035082	 0.500000 
Ti9	 0.522195	 0.083611	 0.000000 
Sr10	 0.605442	 0.152811	 0.000000 
Ti11	 0.545071	 0.168987	 0.500000 
Sr12	 0.582565	 0.067435	 0.500000 
Ti13	 0.401454	 0.115963	 0.000000 
Sr14	 0.484701	 0.185164	 0.000000 
Ti15	 0.424331	 0.201340	 0.500000 
Sr16	 0.461824	 0.099787	 0.500000 
Ti17	 0.280713	 0.148316	 0.000000 
Sr18	 0.363960	 0.217516	 0.000000 
Ti19	 0.303590	 0.233692	 0.500000 
Sr20	 0.341084	 0.132139	 0.500000 
Ti21	 0.159973	 0.180668	 0.000000 
Sr22	 0.243220	 0.249868	 0.000000 
Ti23	 0.182849	 0.266045	 0.500000 
Sr24	 0.220343	 0.164492	 0.500000 
Ti25	 0.039232	 0.213020	 0.000000 
Sr26	 0.122479	 0.282221	 0.000000 
Ti27	 0.062108	 0.298397	 0.500000 
Sr28	 0.099602	 0.196844	 0.500000 
Sr29	 0.001738	 0.314573	 0.000000 
Ti30	 0.809429	 0.189659	 0.000000 
Sr31	 0.892676	 0.258860	 0.000000 
Ti32	 0.832306	 0.275036	 0.500000 
Sr33	 0.869800	 0.173483	 0.500000 
Ti34	 0.688689	 0.222012	 0.000000 
Sr35	 0.771936	 0.291212	 0.000000 
Ti36	 0.711565	 0.307388	 0.500000 
Sr37	 0.749059	 0.205835	 0.500000 
Ti38	 0.567948	 0.254364	 0.000000 
Sr39	 0.651195	 0.323564	 0.000000 
Ti40	 0.590825	 0.339741	 0.500000 
Sr41	 0.628318	 0.238188	 0.500000 
Ti42	 0.447207	 0.286716	 0.000000 
Sr43	 0.530454	 0.355917	 0.000000 
Ti44	 0.470084	 0.372093	 0.500000 
Sr45	 0.507578	 0.270540	 0.500000 
Ti46	 0.326466	 0.319069	 0.000000 
Sr47	 0.409713	 0.388269	 0.000000 
Ti48	 0.349343	 0.404445	 0.500000 
Sr49	 0.386837	 0.302893	 0.500000 
Ti50	 0.205726	 0.351421	 0.000000 
Sr51	 0.288973	 0.420622	 0.000000 
Ti52	 0.228602	 0.436798	 0.500000 
Sr53	 0.266096	 0.335245	 0.500000 
Ti54	 0.084985	 0.383774	 0.000000 
Sr55	 0.168232	 0.452974	 0.000000 
Ti56	 0.107862	 0.469150	 0.500000 
Sr57	 0.145355	 0.367597	 0.500000 
Sr58	 0.047491	 0.485326	 0.000000 
Sr59	 0.024615	 0.399950	 0.500000 
Ti60	 0.855183	 0.360412	 0.000000 
Sr61	 0.938430	 0.429613	 0.000000 
Ti62	 0.878059	 0.445789	 0.500000 
Sr63	 0.915553	 0.344236	 0.500000 
Ti64	 0.734442	 0.392765	 0.000000 
Sr65	 0.817689	 0.461965	 0.000000 
Ti66	 0.757318	 0.478141	 0.500000 
Sr67	 0.794812	 0.376589	 0.500000 
Ti68	 0.613701	 0.425117	 0.000000 
Sr69	 0.696948	 0.494318	 0.000000 
Ti70	 0.636578	 0.510494	 0.500000 
Sr71	 0.674071	 0.408941	 0.500000 
Ti72	 0.492960	 0.457470	 0.000000 
Sr73	 0.576207	 0.526670	 0.000000 
Ti74	 0.515837	 0.542846	 0.500000 
Sr75	 0.553331	 0.441293	 0.500000 
Ti76	 0.372220	 0.489822	 0.000000 
Sr77	 0.455467	 0.559022	 0.000000 
Ti78	 0.395096	 0.575199	 0.500000 
Sr79	 0.432590	 0.473646	 0.500000 
Ti80	 0.251479	 0.522174	 0.000000 
Sr81	 0.334726	 0.591375	 0.000000 
Ti82	 0.274355	 0.607551	 0.500000 
Sr83	 0.311849	 0.505998	 0.500000 
Ti84	 0.130738	 0.554527	 0.000000 
Sr85	 0.213985	 0.623727	 0.000000 
Ti86	 0.153615	 0.639903	 0.500000 
Sr87	 0.191109	 0.538351	 0.500000 
Ti88	 0.009997	 0.586879	 0.000000 
Sr89	 0.093244	 0.656079	 0.000000 
Ti90	 0.032874	 0.672256	 0.500000 
Sr91	 0.070368	 0.570703	 0.500000 
Ti92	 0.900936	 0.531166	 0.000000 
Sr93	 0.984183	 0.600366	 0.000000 
Ti94	 0.923812	 0.616542	 0.500000 
Sr95	 0.961306	 0.514989	 0.500000 
Ti96	 0.780195	 0.563518	 0.000000 
Sr97	 0.863442	 0.632718	 0.000000 
Ti98	 0.803072	 0.648895	 0.500000 
Sr99	 0.840565	 0.547342	 0.500000 
Ti100	 0.659454	 0.595870	 0.000000 
Sr101	 0.742701	 0.665071	 0.000000 
Ti102	 0.682331	 0.681247	 0.500000 
Sr103	 0.719825	 0.579694	 0.500000 
Ti104	 0.538714	 0.628223	 0.000000 
Sr105	 0.621960	 0.697423	 0.000000 
Ti106	 0.561590	 0.713599	 0.500000 
Sr107	 0.599084	 0.612047	 0.500000 
Ti108	 0.417973	 0.660575	 0.000000 
Sr109	 0.501220	 0.729776	 0.000000 
Ti110	 0.440849	 0.745952	 0.500000 
Sr111	 0.478343	 0.644399	 0.500000 
Ti112	 0.297232	 0.692927	 0.000000 
Sr113	 0.380479	 0.762128	 0.000000 
Ti114	 0.320109	 0.778304	 0.500000 
Sr115	 0.357602	 0.676751	 0.500000 
Ti116	 0.176491	 0.725280	 0.000000 
Sr117	 0.259738	 0.794480	 0.000000 
Ti118	 0.199368	 0.810656	 0.500000 
Sr119	 0.236862	 0.709104	 0.500000 
Ti120	 0.055751	 0.757632	 0.000000 
Sr121	 0.138998	 0.826833	 0.000000 
Ti122	 0.078627	 0.843009	 0.500000 
Sr123	 0.116121	 0.741456	 0.500000 
Ti124	 0.946689	 0.701919	 0.000000 
Ti125	 0.969565	 0.787295	 0.500000 
Ti126	 0.825948	 0.734271	 0.000000 
Sr127	 0.909195	 0.803472	 0.000000 
Ti128	 0.848825	 0.819648	 0.500000 
Sr129	 0.886319	 0.718095	 0.500000 
Ti130	 0.705207	 0.766624	 0.000000 
Sr131	 0.788454	 0.835824	 0.000000 
Ti132	 0.728084	 0.852000	 0.500000 
Sr133	 0.765578	 0.750447	 0.500000 
Ti134	 0.584467	 0.798976	 0.000000 
Sr135	 0.667714	 0.868176	 0.000000 
Ti136	 0.607343	 0.884353	 0.500000 
Sr137	 0.644837	 0.782800	 0.500000 
Ti138	 0.463726	 0.831328	 0.000000 
Sr139	 0.546973	 0.900529	 0.000000 
Ti140	 0.486603	 0.916705	 0.500000 
Sr141	 0.524096	 0.815152	 0.500000 
Ti142	 0.342985	 0.863681	 0.000000 
Sr143	 0.426232	 0.932881	 0.000000 
Ti144	 0.365862	 0.949057	 0.500000 
Sr145	 0.403356	 0.847504	 0.500000 
Ti146	 0.222245	 0.896033	 0.000000 
Sr147	 0.305491	 0.965233	 0.000000 
Ti148	 0.245121	 0.981410	 0.500000 
Sr149	 0.282615	 0.879857	 0.500000 
Ti150	 0.101504	 0.928385	 0.000000 
Sr151	 0.184751	 0.997586	 0.000000 
Sr152	 0.161874	 0.912209	 0.500000 
#                 ---end-of-data-block---
