data_Pt structure along [001] nx 5 ny 8 nz 1
_cell_length_a               31.240000
_cell_length_b               31.240000
_cell_length_c               5.543717
_cell_angle_alpha          90.000000
_cell_angle_beta           90.000000
_cell_angle_gamma          90.000000
_symmetry_cell_setting          Triclinic
_symmetry_space_group_name_H-M 'P 1' 
loop_
_atom_site_label
_atom_site_fract_x
_atom_site_fract_y
_atom_site_fract_z
Ti1	 0.819042	 0.013711	 0.000000 
Sr2	 0.902289	 0.082911	 0.000000 
Ti3	 0.841919	 0.099088	 0.500000 
Ti4	 0.698301	 0.046063	 0.000000 
Sr5	 0.781548	 0.115264	 0.000000 
Ti6	 0.721178	 0.131440	 0.500000 
Sr7	 0.758672	 0.029887	 0.500000 
Ti8	 0.577561	 0.078416	 0.000000 
Sr9	 0.660808	 0.147616	 0.000000 
Ti10	 0.600437	 0.163792	 0.500000 
Sr11	 0.637931	 0.062240	 0.500000 
Ti12	 0.456820	 0.110768	 0.000000 
Sr13	 0.540067	 0.179969	 0.000000 
Ti14	 0.479697	 0.196145	 0.500000 
Sr15	 0.517190	 0.094592	 0.500000 
Ti16	 0.336079	 0.143121	 0.000000 
Sr17	 0.419326	 0.212321	 0.000000 
Ti18	 0.358956	 0.228497	 0.500000 
Sr19	 0.396450	 0.126944	 0.500000 
Ti20	 0.215339	 0.175473	 0.000000 
Sr21	 0.298585	 0.244673	 0.000000 
Ti22	 0.238215	 0.260850	 0.500000 
Sr23	 0.275709	 0.159297	 0.500000 
Ti24	 0.094598	 0.207825	 0.000000 
Sr25	 0.177845	 0.277026	 0.000000 
Ti26	 0.117474	 0.293202	 0.500000 
Sr27	 0.154968	 0.191649	 0.500000 
Sr28	 0.057104	 0.309378	 0.000000 
Sr29	 0.034227	 0.224001	 0.500000 
Ti30	 0.864795	 0.184464	 0.000000 
Sr31	 0.948042	 0.253665	 0.000000 
Ti32	 0.887672	 0.269841	 0.500000 
Sr33	 0.925166	 0.168288	 0.500000 
Ti34	 0.744055	 0.216817	 0.000000 
Sr35	 0.827302	 0.286017	 0.000000 
Ti36	 0.766931	 0.302193	 0.500000 
Sr37	 0.804425	 0.200640	 0.500000 
Ti38	 0.623314	 0.249169	 0.000000 
Sr39	 0.706561	 0.318369	 0.000000 
Ti40	 0.646190	 0.334546	 0.500000 
Sr41	 0.683684	 0.232993	 0.500000 
Ti42	 0.502573	 0.281521	 0.000000 
Sr43	 0.585820	 0.350722	 0.000000 
Ti44	 0.525450	 0.366898	 0.500000 
Sr45	 0.562944	 0.265345	 0.500000 
Ti46	 0.381832	 0.313874	 0.000000 
Sr47	 0.465079	 0.383074	 0.000000 
Ti48	 0.404709	 0.399250	 0.500000 
Sr49	 0.442203	 0.297698	 0.500000 
Ti50	 0.261092	 0.346226	 0.000000 
Sr51	 0.344339	 0.415426	 0.000000 
Ti52	 0.283968	 0.431603	 0.500000 
Sr53	 0.321462	 0.330050	 0.500000 
Ti54	 0.140351	 0.378578	 0.000000 
Sr55	 0.223598	 0.447779	 0.000000 
Ti56	 0.163228	 0.463955	 0.500000 
Sr57	 0.200721	 0.362402	 0.500000 
Ti58	 0.019610	 0.410931	 0.000000 
Sr59	 0.102857	 0.480131	 0.000000 
Ti60	 0.042487	 0.496307	 0.500000 
Sr61	 0.079981	 0.394755	 0.500000 
Ti62	 0.910549	 0.355217	 0.000000 
Sr63	 0.993795	 0.424418	 0.000000 
Ti64	 0.933425	 0.440594	 0.500000 
Sr65	 0.970919	 0.339041	 0.500000 
Ti66	 0.789808	 0.387570	 0.000000 
Sr67	 0.873055	 0.456770	 0.000000 
Ti68	 0.812684	 0.472946	 0.500000 
Sr69	 0.850178	 0.371394	 0.500000 
Ti70	 0.669067	 0.419922	 0.000000 
Sr71	 0.752314	 0.489123	 0.000000 
Ti72	 0.691944	 0.505299	 0.500000 
Sr73	 0.729437	 0.403746	 0.500000 
Ti74	 0.548326	 0.452275	 0.000000 
Sr75	 0.631573	 0.521475	 0.000000 
Ti76	 0.571203	 0.537651	 0.500000 
Sr77	 0.608697	 0.436098	 0.500000 
Ti78	 0.427586	 0.484627	 0.000000 
Sr79	 0.510833	 0.553827	 0.000000 
Ti80	 0.450462	 0.570003	 0.500000 
Sr81	 0.487956	 0.468451	 0.500000 
Ti82	 0.306845	 0.516979	 0.000000 
Sr83	 0.390092	 0.586180	 0.000000 
Ti84	 0.329721	 0.602356	 0.500000 
Sr85	 0.367215	 0.500803	 0.500000 
Ti86	 0.186104	 0.549332	 0.000000 
Sr87	 0.269351	 0.618532	 0.000000 
Ti88	 0.208981	 0.634708	 0.500000 
Sr89	 0.246475	 0.533155	 0.500000 
Ti90	 0.065363	 0.581684	 0.000000 
Sr91	 0.148610	 0.650884	 0.000000 
Ti92	 0.088240	 0.667061	 0.500000 
Sr93	 0.125734	 0.565508	 0.500000 
Ti94	 0.956302	 0.525971	 0.000000 
Ti95	 0.979178	 0.611347	 0.500000 
Ti96	 0.835561	 0.558323	 0.000000 
Sr97	 0.918808	 0.627523	 0.000000 
Ti98	 0.858438	 0.643700	 0.500000 
Sr99	 0.895931	 0.542147	 0.500000 
Ti100	 0.714820	 0.590675	 0.000000 
Sr101	 0.798067	 0.659876	 0.000000 
Ti102	 0.737697	 0.676052	 0.500000 
Sr103	 0.775191	 0.574499	 0.500000 
Ti104	 0.594079	 0.623028	 0.000000 
Sr105	 0.677326	 0.692228	 0.000000 
Ti106	 0.616956	 0.708404	 0.500000 
Sr107	 0.654450	 0.606851	 0.500000 
Ti108	 0.473339	 0.655380	 0.000000 
Sr109	 0.556586	 0.724580	 0.000000 
Ti110	 0.496215	 0.740757	 0.500000 
Sr111	 0.533709	 0.639204	 0.500000 
Ti112	 0.352598	 0.687732	 0.000000 
Sr113	 0.435845	 0.756933	 0.000000 
Ti114	 0.375475	 0.773109	 0.500000 
Sr115	 0.412968	 0.671556	 0.500000 
Ti116	 0.231857	 0.720085	 0.000000 
Sr117	 0.315104	 0.789285	 0.000000 
Ti118	 0.254734	 0.805461	 0.500000 
Sr119	 0.292228	 0.703909	 0.500000 
Ti120	 0.111117	 0.752437	 0.000000 
Sr121	 0.194364	 0.821638	 0.000000 
Ti122	 0.133993	 0.837814	 0.500000 
Sr123	 0.171487	 0.736261	 0.500000 
Ti124	 0.881314	 0.729076	 0.000000 
Sr125	 0.964561	 0.798276	 0.000000 
Ti126	 0.904191	 0.814453	 0.500000 
Sr127	 0.941684	 0.712900	 0.500000 
Ti128	 0.760573	 0.761428	 0.000000 
Sr129	 0.843820	 0.830629	 0.000000 
Ti130	 0.783450	 0.846805	 0.500000 
Sr131	 0.820944	 0.745252	 0.500000 
Ti132	 0.639833	 0.793781	 0.000000 
Sr133	 0.723080	 0.862981	 0.000000 
Ti134	 0.662709	 0.879157	 0.500000 
Sr135	 0.700203	 0.777605	 0.500000 
Ti136	 0.519092	 0.826133	 0.000000 
Sr137	 0.602339	 0.895334	 0.000000 
Ti138	 0.541969	 0.911510	 0.500000 
Sr139	 0.579462	 0.809957	 0.500000 
Ti140	 0.398351	 0.858486	 0.000000 
Sr141	 0.481598	 0.927686	 0.000000 
Ti142	 0.421228	 0.943862	 0.500000 
Sr143	 0.458722	 0.842309	 0.500000 
Ti144	 0.277610	 0.890838	 0.000000 
Sr145	 0.360857	 0.960038	 0.000000 
Ti146	 0.300487	 0.976215	 0.500000 
Sr147	 0.337981	 0.874662	 0.500000 
Ti148	 0.156870	 0.923190	 0.000000 
Sr149	 0.240117	 0.992391	 0.000000 
Sr150	 0.217240	 0.907014	 0.500000 
#                 ---end-of-data-block---
