data_A fcc partile with size of 24 A with 100/111/110 ratio of 1/0.948628/2
_cell_length_a               31.360000
_cell_length_b               31.360000
_cell_length_c               31.360000
_cell_angle_alpha          90.000000
_cell_angle_beta           90.000000
_cell_angle_gamma          90.000000
_symmetry_cell_setting          Triclinic
_symmetry_space_group_name_H-M 'P 1' 
loop_
_atom_site_label
_atom_site_fract_x
_atom_site_fract_y
_atom_site_fract_z
Pt1	 0.153249	 0.374995	 0.279029 
Pt2	 0.292295	 0.439054	 0.190641 
Pt3	 0.215749	 0.483248	 0.190641 
Pt4	 0.222772	 0.407025	 0.234835 
Pt5	 0.146226	 0.451219	 0.234835 
Pt6	 0.215749	 0.483248	 0.279029 
Pt7	 0.139202	 0.527443	 0.279029 
Pt8	 0.146226	 0.451219	 0.323223 
Pt9	 0.139202	 0.527443	 0.367417 
Pt10	 0.431342	 0.503113	 0.102252 
Pt11	 0.354795	 0.547307	 0.102252 
Pt12	 0.361819	 0.471084	 0.146447 
Pt13	 0.285272	 0.515278	 0.146447 
Pt14	 0.354795	 0.547307	 0.190641 
Pt15	 0.278249	 0.591502	 0.190641 
Pt16	 0.285272	 0.515278	 0.234835 
Pt17	 0.208726	 0.559472	 0.234835 
Pt18	 0.278249	 0.591502	 0.279029 
Pt19	 0.201702	 0.635696	 0.279029 
Pt20	 0.208726	 0.559472	 0.323223 
Pt21	 0.132179	 0.603666	 0.323223 
Pt22	 0.201702	 0.635696	 0.367417 
Pt23	 0.125156	 0.679890	 0.367417 
Pt24	 0.132179	 0.603666	 0.411612 
Pt25	 0.125156	 0.679890	 0.455806 
Pt26	 0.500865	 0.535143	 0.058058 
Pt27	 0.424319	 0.579337	 0.058058 
Pt28	 0.493842	 0.611366	 0.102252 
Pt29	 0.417295	 0.655561	 0.102252 
Pt30	 0.424319	 0.579337	 0.146447 
Pt31	 0.347772	 0.623531	 0.146447 
Pt32	 0.417295	 0.655561	 0.190641 
Pt33	 0.340749	 0.699755	 0.190641 
Pt34	 0.347772	 0.623531	 0.234835 
Pt35	 0.271226	 0.667725	 0.234835 
Pt36	 0.340749	 0.699755	 0.279029 
Pt37	 0.264202	 0.743949	 0.279029 
Pt38	 0.271226	 0.667725	 0.323223 
Pt39	 0.194679	 0.711919	 0.323223 
Pt40	 0.264202	 0.743949	 0.367417 
Pt41	 0.187656	 0.788143	 0.367417 
Pt42	 0.194679	 0.711919	 0.411612 
Pt43	 0.118132	 0.756114	 0.411612 
Pt44	 0.187656	 0.788143	 0.455806 
Pt45	 0.118132	 0.756114	 0.500000 
Pt46	 0.486819	 0.687590	 0.146447 
Pt47	 0.410272	 0.731784	 0.146447 
Pt48	 0.479795	 0.763814	 0.190641 
Pt49	 0.403249	 0.808008	 0.190641 
Pt50	 0.410272	 0.731784	 0.234835 
Pt51	 0.333726	 0.775978	 0.234835 
Pt52	 0.403249	 0.808008	 0.279029 
Pt53	 0.326702	 0.852202	 0.279029 
Pt54	 0.333726	 0.775978	 0.323223 
Pt55	 0.257179	 0.820173	 0.323223 
Pt56	 0.326702	 0.852202	 0.367417 
Pt57	 0.257179	 0.820173	 0.411612 
Pt58	 0.472772	 0.840037	 0.234835 
Pt59	 0.396226	 0.884232	 0.234835 
Pt60	 0.465749	 0.916261	 0.279029 
Pt61	 0.396226	 0.884232	 0.323223 
Pt62	 0.306342	 0.286607	 0.279029 
Pt63	 0.229795	 0.330801	 0.279029 
Pt64	 0.236819	 0.254577	 0.323223 
Pt65	 0.160272	 0.298772	 0.323223 
Pt66	 0.229795	 0.330801	 0.367417 
Pt67	 0.153249	 0.374995	 0.367417 
Pt68	 0.160272	 0.298772	 0.411612 
Pt69	 0.153249	 0.374995	 0.455806 
Pt70	 0.445389	 0.350666	 0.190641 
Pt71	 0.368842	 0.394860	 0.190641 
Pt72	 0.375865	 0.318636	 0.234835 
Pt73	 0.299319	 0.362831	 0.234835 
Pt74	 0.368842	 0.394860	 0.279029 
Pt75	 0.292295	 0.439054	 0.279029 
Pt76	 0.299319	 0.362831	 0.323223 
Pt77	 0.222772	 0.407025	 0.323223 
Pt78	 0.292295	 0.439054	 0.367417 
Pt79	 0.215749	 0.483248	 0.367417 
Pt80	 0.222772	 0.407025	 0.411612 
Pt81	 0.146226	 0.451219	 0.411612 
Pt82	 0.215749	 0.483248	 0.455806 
Pt83	 0.139202	 0.527443	 0.455806 
Pt84	 0.146226	 0.451219	 0.500000 
Pt85	 0.139202	 0.527443	 0.544194 
Pt86	 0.584435	 0.414725	 0.102252 
Pt87	 0.507889	 0.458919	 0.102252 
Pt88	 0.514912	 0.382695	 0.146447 
Pt89	 0.438365	 0.426890	 0.146447 
Pt90	 0.507889	 0.458919	 0.190641 
Pt91	 0.431342	 0.503113	 0.190641 
Pt92	 0.438365	 0.426890	 0.234835 
Pt93	 0.361819	 0.471084	 0.234835 
Pt94	 0.431342	 0.503113	 0.279029 
Pt95	 0.354795	 0.547307	 0.279029 
Pt96	 0.361819	 0.471084	 0.323223 
Pt97	 0.285272	 0.515278	 0.323223 
Pt98	 0.354795	 0.547307	 0.367417 
Pt99	 0.278249	 0.591502	 0.367417 
Pt100	 0.285272	 0.515278	 0.411612 
Pt101	 0.208726	 0.559472	 0.411612 
Pt102	 0.278249	 0.591502	 0.455806 
Pt103	 0.201702	 0.635696	 0.455806 
Pt104	 0.208726	 0.559472	 0.500000 
Pt105	 0.132179	 0.603666	 0.500000 
Pt106	 0.201702	 0.635696	 0.544194 
Pt107	 0.125156	 0.679890	 0.544194 
Pt108	 0.132179	 0.603666	 0.588388 
Pt109	 0.125156	 0.679890	 0.632583 
Pt110	 0.577412	 0.490949	 0.058058 
Pt111	 0.646935	 0.522978	 0.102252 
Pt112	 0.570389	 0.567172	 0.102252 
Pt113	 0.577412	 0.490949	 0.146447 
Pt114	 0.500865	 0.535143	 0.146447 
Pt115	 0.570389	 0.567172	 0.190641 
Pt116	 0.493842	 0.611366	 0.190641 
Pt117	 0.500865	 0.535143	 0.234835 
Pt118	 0.424319	 0.579337	 0.234835 
Pt119	 0.493842	 0.611366	 0.279029 
Pt120	 0.417295	 0.655561	 0.279029 
Pt121	 0.424319	 0.579337	 0.323223 
Pt122	 0.347772	 0.623531	 0.323223 
Pt123	 0.417295	 0.655561	 0.367417 
Pt124	 0.340749	 0.699755	 0.367417 
Pt125	 0.347772	 0.623531	 0.411612 
Pt126	 0.271226	 0.667725	 0.411612 
Pt127	 0.340749	 0.699755	 0.455806 
Pt128	 0.264202	 0.743949	 0.455806 
Pt129	 0.271226	 0.667725	 0.500000 
Pt130	 0.194679	 0.711919	 0.500000 
Pt131	 0.264202	 0.743949	 0.544194 
Pt132	 0.187656	 0.788143	 0.544194 
Pt133	 0.194679	 0.711919	 0.588388 
Pt134	 0.118132	 0.756114	 0.588388 
Pt135	 0.187656	 0.788143	 0.632583 
Pt136	 0.639912	 0.599202	 0.146447 
Pt137	 0.563365	 0.643396	 0.146447 
Pt138	 0.632889	 0.675425	 0.190641 
Pt139	 0.556342	 0.719620	 0.190641 
Pt140	 0.563365	 0.643396	 0.234835 
Pt141	 0.486819	 0.687590	 0.234835 
Pt142	 0.556342	 0.719620	 0.279029 
Pt143	 0.479795	 0.763814	 0.279029 
Pt144	 0.486819	 0.687590	 0.323223 
Pt145	 0.410272	 0.731784	 0.323223 
Pt146	 0.479795	 0.763814	 0.367417 
Pt147	 0.403249	 0.808008	 0.367417 
Pt148	 0.410272	 0.731784	 0.411612 
Pt149	 0.333726	 0.775978	 0.411612 
Pt150	 0.403249	 0.808008	 0.455806 
Pt151	 0.326702	 0.852202	 0.455806 
Pt152	 0.333726	 0.775978	 0.500000 
Pt153	 0.257179	 0.820173	 0.500000 
Pt154	 0.326702	 0.852202	 0.544194 
Pt155	 0.257179	 0.820173	 0.588388 
Pt156	 0.625865	 0.751649	 0.234835 
Pt157	 0.549319	 0.795843	 0.234835 
Pt158	 0.618842	 0.827873	 0.279029 
Pt159	 0.542295	 0.872067	 0.279029 
Pt160	 0.549319	 0.795843	 0.323223 
Pt161	 0.472772	 0.840037	 0.323223 
Pt162	 0.542295	 0.872067	 0.367417 
Pt163	 0.465749	 0.916261	 0.367417 
Pt164	 0.472772	 0.840037	 0.411612 
Pt165	 0.396226	 0.884232	 0.411612 
Pt166	 0.465749	 0.916261	 0.455806 
Pt167	 0.396226	 0.884232	 0.500000 
Pt168	 0.611819	 0.904096	 0.323223 
Pt169	 0.535272	 0.948291	 0.323223 
Pt170	 0.535272	 0.948291	 0.411612 
Pt171	 0.459435	 0.198219	 0.279029 
Pt172	 0.382889	 0.242413	 0.279029 
Pt173	 0.389912	 0.166189	 0.323223 
Pt174	 0.313365	 0.210383	 0.323223 
Pt175	 0.382889	 0.242413	 0.367417 
Pt176	 0.306342	 0.286607	 0.367417 
Pt177	 0.313365	 0.210383	 0.411612 
Pt178	 0.236819	 0.254577	 0.411612 
Pt179	 0.306342	 0.286607	 0.455806 
Pt180	 0.229795	 0.330801	 0.455806 
Pt181	 0.236819	 0.254577	 0.500000 
Pt182	 0.160272	 0.298772	 0.500000 
Pt183	 0.229795	 0.330801	 0.544194 
Pt184	 0.153249	 0.374995	 0.544194 
Pt185	 0.160272	 0.298772	 0.588388 
Pt186	 0.153249	 0.374995	 0.632583 
Pt187	 0.598482	 0.262278	 0.190641 
Pt188	 0.521935	 0.306472	 0.190641 
Pt189	 0.528958	 0.230248	 0.234835 
Pt190	 0.452412	 0.274442	 0.234835 
Pt191	 0.521935	 0.306472	 0.279029 
Pt192	 0.445389	 0.350666	 0.279029 
Pt193	 0.452412	 0.274442	 0.323223 
Pt194	 0.375865	 0.318636	 0.323223 
Pt195	 0.445389	 0.350666	 0.367417 
Pt196	 0.368842	 0.394860	 0.367417 
Pt197	 0.375865	 0.318636	 0.411612 
Pt198	 0.299319	 0.362831	 0.411612 
Pt199	 0.368842	 0.394860	 0.455806 
Pt200	 0.292295	 0.439054	 0.455806 
Pt201	 0.299319	 0.362831	 0.500000 
Pt202	 0.222772	 0.407025	 0.500000 
Pt203	 0.292295	 0.439054	 0.544194 
Pt204	 0.215749	 0.483248	 0.544194 
Pt205	 0.222772	 0.407025	 0.588388 
Pt206	 0.146226	 0.451219	 0.588388 
Pt207	 0.215749	 0.483248	 0.632583 
Pt208	 0.139202	 0.527443	 0.632583 
Pt209	 0.146226	 0.451219	 0.676777 
Pt210	 0.139202	 0.527443	 0.720971 
Pt211	 0.591458	 0.338501	 0.146447 
Pt212	 0.660982	 0.370531	 0.190641 
Pt213	 0.584435	 0.414725	 0.190641 
Pt214	 0.591458	 0.338501	 0.234835 
Pt215	 0.514912	 0.382695	 0.234835 
Pt216	 0.584435	 0.414725	 0.279029 
Pt217	 0.507889	 0.458919	 0.279029 
Pt218	 0.514912	 0.382695	 0.323223 
Pt219	 0.438365	 0.426890	 0.323223 
Pt220	 0.507889	 0.458919	 0.367417 
Pt221	 0.431342	 0.503113	 0.367417 
Pt222	 0.438365	 0.426890	 0.411612 
Pt223	 0.361819	 0.471084	 0.411612 
Pt224	 0.431342	 0.503113	 0.455806 
Pt225	 0.354795	 0.547307	 0.455806 
Pt226	 0.361819	 0.471084	 0.500000 
Pt227	 0.285272	 0.515278	 0.500000 
Pt228	 0.354795	 0.547307	 0.544194 
Pt229	 0.278249	 0.591502	 0.544194 
Pt230	 0.285272	 0.515278	 0.588388 
Pt231	 0.208726	 0.559472	 0.588388 
Pt232	 0.278249	 0.591502	 0.632583 
Pt233	 0.201702	 0.635696	 0.632583 
Pt234	 0.208726	 0.559472	 0.676777 
Pt235	 0.132179	 0.603666	 0.676777 
Pt236	 0.201702	 0.635696	 0.720971 
Pt237	 0.653958	 0.446754	 0.146447 
Pt238	 0.723482	 0.478784	 0.190641 
Pt239	 0.646935	 0.522978	 0.190641 
Pt240	 0.653958	 0.446754	 0.234835 
Pt241	 0.577412	 0.490949	 0.234835 
Pt242	 0.646935	 0.522978	 0.279029 
Pt243	 0.570389	 0.567172	 0.279029 
Pt244	 0.577412	 0.490949	 0.323223 
Pt245	 0.500865	 0.535143	 0.323223 
Pt246	 0.570389	 0.567172	 0.367417 
Pt247	 0.493842	 0.611366	 0.367417 
Pt248	 0.500865	 0.535143	 0.411612 
Pt249	 0.424319	 0.579337	 0.411612 
Pt250	 0.493842	 0.611366	 0.455806 
Pt251	 0.417295	 0.655561	 0.455806 
Pt252	 0.424319	 0.579337	 0.500000 
Pt253	 0.347772	 0.623531	 0.500000 
Pt254	 0.417295	 0.655561	 0.544194 
Pt255	 0.340749	 0.699755	 0.544194 
Pt256	 0.347772	 0.623531	 0.588388 
Pt257	 0.271226	 0.667725	 0.588388 
Pt258	 0.340749	 0.699755	 0.632583 
Pt259	 0.264202	 0.743949	 0.632583 
Pt260	 0.271226	 0.667725	 0.676777 
Pt261	 0.194679	 0.711919	 0.676777 
Pt262	 0.264202	 0.743949	 0.720971 
Pt263	 0.716458	 0.555008	 0.146447 
Pt264	 0.785982	 0.587037	 0.190641 
Pt265	 0.709435	 0.631231	 0.190641 
Pt266	 0.716458	 0.555008	 0.234835 
Pt267	 0.639912	 0.599202	 0.234835 
Pt268	 0.709435	 0.631231	 0.279029 
Pt269	 0.632889	 0.675425	 0.279029 
Pt270	 0.639912	 0.599202	 0.323223 
Pt271	 0.563365	 0.643396	 0.323223 
Pt272	 0.632889	 0.675425	 0.367417 
Pt273	 0.556342	 0.719620	 0.367417 
Pt274	 0.563365	 0.643396	 0.411612 
Pt275	 0.486819	 0.687590	 0.411612 
Pt276	 0.556342	 0.719620	 0.455806 
Pt277	 0.479795	 0.763814	 0.455806 
Pt278	 0.486819	 0.687590	 0.500000 
Pt279	 0.410272	 0.731784	 0.500000 
Pt280	 0.479795	 0.763814	 0.544194 
Pt281	 0.403249	 0.808008	 0.544194 
Pt282	 0.410272	 0.731784	 0.588388 
Pt283	 0.333726	 0.775978	 0.588388 
Pt284	 0.403249	 0.808008	 0.632583 
Pt285	 0.326702	 0.852202	 0.632583 
Pt286	 0.333726	 0.775978	 0.676777 
Pt287	 0.257179	 0.820173	 0.676777 
Pt288	 0.326702	 0.852202	 0.720971 
Pt289	 0.778958	 0.663261	 0.234835 
Pt290	 0.702412	 0.707455	 0.234835 
Pt291	 0.771935	 0.739484	 0.279029 
Pt292	 0.695389	 0.783679	 0.279029 
Pt293	 0.702412	 0.707455	 0.323223 
Pt294	 0.625865	 0.751649	 0.323223 
Pt295	 0.695389	 0.783679	 0.367417 
Pt296	 0.618842	 0.827873	 0.367417 
Pt297	 0.625865	 0.751649	 0.411612 
Pt298	 0.549319	 0.795843	 0.411612 
Pt299	 0.618842	 0.827873	 0.455806 
Pt300	 0.542295	 0.872067	 0.455806 
Pt301	 0.549319	 0.795843	 0.500000 
Pt302	 0.472772	 0.840037	 0.500000 
Pt303	 0.542295	 0.872067	 0.544194 
Pt304	 0.465749	 0.916261	 0.544194 
Pt305	 0.472772	 0.840037	 0.588388 
Pt306	 0.396226	 0.884232	 0.588388 
Pt307	 0.465749	 0.916261	 0.632583 
Pt308	 0.396226	 0.884232	 0.676777 
Pt309	 0.764912	 0.815708	 0.323223 
Pt310	 0.688365	 0.859902	 0.323223 
Pt311	 0.688365	 0.859902	 0.411612 
Pt312	 0.611819	 0.904096	 0.411612 
Pt313	 0.611819	 0.904096	 0.500000 
Pt314	 0.535272	 0.948291	 0.500000 
Pt315	 0.535272	 0.948291	 0.588388 
Pt316	 0.535982	 0.154024	 0.279029 
Pt317	 0.466458	 0.121995	 0.323223 
Pt318	 0.535982	 0.154024	 0.367417 
Pt319	 0.459435	 0.198219	 0.367417 
Pt320	 0.466458	 0.121995	 0.411612 
Pt321	 0.389912	 0.166189	 0.411612 
Pt322	 0.459435	 0.198219	 0.455806 
Pt323	 0.382889	 0.242413	 0.455806 
Pt324	 0.389912	 0.166189	 0.500000 
Pt325	 0.313365	 0.210383	 0.500000 
Pt326	 0.382889	 0.242413	 0.544194 
Pt327	 0.306342	 0.286607	 0.544194 
Pt328	 0.313365	 0.210383	 0.588388 
Pt329	 0.236819	 0.254577	 0.588388 
Pt330	 0.306342	 0.286607	 0.632583 
Pt331	 0.229795	 0.330801	 0.632583 
Pt332	 0.236819	 0.254577	 0.676777 
Pt333	 0.160272	 0.298772	 0.676777 
Pt334	 0.229795	 0.330801	 0.720971 
Pt335	 0.153249	 0.374995	 0.720971 
Pt336	 0.605505	 0.186054	 0.234835 
Pt337	 0.675028	 0.218083	 0.279029 
Pt338	 0.598482	 0.262278	 0.279029 
Pt339	 0.605505	 0.186054	 0.323223 
Pt340	 0.528958	 0.230248	 0.323223 
Pt341	 0.598482	 0.262278	 0.367417 
Pt342	 0.521935	 0.306472	 0.367417 
Pt343	 0.528958	 0.230248	 0.411612 
Pt344	 0.452412	 0.274442	 0.411612 
Pt345	 0.521935	 0.306472	 0.455806 
Pt346	 0.445389	 0.350666	 0.455806 
Pt347	 0.452412	 0.274442	 0.500000 
Pt348	 0.375865	 0.318636	 0.500000 
Pt349	 0.445389	 0.350666	 0.544194 
Pt350	 0.368842	 0.394860	 0.544194 
Pt351	 0.375865	 0.318636	 0.588388 
Pt352	 0.299319	 0.362831	 0.588388 
Pt353	 0.368842	 0.394860	 0.632583 
Pt354	 0.292295	 0.439054	 0.632583 
Pt355	 0.299319	 0.362831	 0.676777 
Pt356	 0.222772	 0.407025	 0.676777 
Pt357	 0.292295	 0.439054	 0.720971 
Pt358	 0.215749	 0.483248	 0.720971 
Pt359	 0.222772	 0.407025	 0.765165 
Pt360	 0.146226	 0.451219	 0.765165 
Pt361	 0.215749	 0.483248	 0.809359 
Pt362	 0.668005	 0.294307	 0.234835 
Pt363	 0.737528	 0.326337	 0.279029 
Pt364	 0.660982	 0.370531	 0.279029 
Pt365	 0.668005	 0.294307	 0.323223 
Pt366	 0.591458	 0.338501	 0.323223 
Pt367	 0.660982	 0.370531	 0.367417 
Pt368	 0.584435	 0.414725	 0.367417 
Pt369	 0.591458	 0.338501	 0.411612 
Pt370	 0.514912	 0.382695	 0.411612 
Pt371	 0.584435	 0.414725	 0.455806 
Pt372	 0.507889	 0.458919	 0.455806 
Pt373	 0.514912	 0.382695	 0.500000 
Pt374	 0.438365	 0.426890	 0.500000 
Pt375	 0.507889	 0.458919	 0.544194 
Pt376	 0.431342	 0.503113	 0.544194 
Pt377	 0.438365	 0.426890	 0.588388 
Pt378	 0.361819	 0.471084	 0.588388 
Pt379	 0.431342	 0.503113	 0.632583 
Pt380	 0.354795	 0.547307	 0.632583 
Pt381	 0.361819	 0.471084	 0.676777 
Pt382	 0.285272	 0.515278	 0.676777 
Pt383	 0.354795	 0.547307	 0.720971 
Pt384	 0.278249	 0.591502	 0.720971 
Pt385	 0.285272	 0.515278	 0.765165 
Pt386	 0.208726	 0.559472	 0.765165 
Pt387	 0.278249	 0.591502	 0.809359 
Pt388	 0.730505	 0.402560	 0.234835 
Pt389	 0.800028	 0.434590	 0.279029 
Pt390	 0.723482	 0.478784	 0.279029 
Pt391	 0.730505	 0.402560	 0.323223 
Pt392	 0.653958	 0.446754	 0.323223 
Pt393	 0.723482	 0.478784	 0.367417 
Pt394	 0.646935	 0.522978	 0.367417 
Pt395	 0.653958	 0.446754	 0.411612 
Pt396	 0.577412	 0.490949	 0.411612 
Pt397	 0.646935	 0.522978	 0.455806 
Pt398	 0.570389	 0.567172	 0.455806 
Pt399	 0.577412	 0.490949	 0.500000 
Pt400	 0.500865	 0.535143	 0.500000 
Pt401	 0.570389	 0.567172	 0.544194 
Pt402	 0.493842	 0.611366	 0.544194 
Pt403	 0.500865	 0.535143	 0.588388 
Pt404	 0.424319	 0.579337	 0.588388 
Pt405	 0.493842	 0.611366	 0.632583 
Pt406	 0.417295	 0.655561	 0.632583 
Pt407	 0.424319	 0.579337	 0.676777 
Pt408	 0.347772	 0.623531	 0.676777 
Pt409	 0.417295	 0.655561	 0.720971 
Pt410	 0.340749	 0.699755	 0.720971 
Pt411	 0.347772	 0.623531	 0.765165 
Pt412	 0.271226	 0.667725	 0.765165 
Pt413	 0.340749	 0.699755	 0.809359 
Pt414	 0.793005	 0.510813	 0.234835 
Pt415	 0.862528	 0.542843	 0.279029 
Pt416	 0.785982	 0.587037	 0.279029 
Pt417	 0.793005	 0.510813	 0.323223 
Pt418	 0.716458	 0.555008	 0.323223 
Pt419	 0.785982	 0.587037	 0.367417 
Pt420	 0.709435	 0.631231	 0.367417 
Pt421	 0.716458	 0.555008	 0.411612 
Pt422	 0.639912	 0.599202	 0.411612 
Pt423	 0.709435	 0.631231	 0.455806 
Pt424	 0.632889	 0.675425	 0.455806 
Pt425	 0.639912	 0.599202	 0.500000 
Pt426	 0.563365	 0.643396	 0.500000 
Pt427	 0.632889	 0.675425	 0.544194 
Pt428	 0.556342	 0.719620	 0.544194 
Pt429	 0.563365	 0.643396	 0.588388 
Pt430	 0.486819	 0.687590	 0.588388 
Pt431	 0.556342	 0.719620	 0.632583 
Pt432	 0.479795	 0.763814	 0.632583 
Pt433	 0.486819	 0.687590	 0.676777 
Pt434	 0.410272	 0.731784	 0.676777 
Pt435	 0.479795	 0.763814	 0.720971 
Pt436	 0.403249	 0.808008	 0.720971 
Pt437	 0.410272	 0.731784	 0.765165 
Pt438	 0.333726	 0.775978	 0.765165 
Pt439	 0.403249	 0.808008	 0.809359 
Pt440	 0.855505	 0.619067	 0.234835 
Pt441	 0.848482	 0.695290	 0.279029 
Pt442	 0.855505	 0.619067	 0.323223 
Pt443	 0.778958	 0.663261	 0.323223 
Pt444	 0.848482	 0.695290	 0.367417 
Pt445	 0.771935	 0.739484	 0.367417 
Pt446	 0.778958	 0.663261	 0.411612 
Pt447	 0.702412	 0.707455	 0.411612 
Pt448	 0.771935	 0.739484	 0.455806 
Pt449	 0.695389	 0.783679	 0.455806 
Pt450	 0.702412	 0.707455	 0.500000 
Pt451	 0.625865	 0.751649	 0.500000 
Pt452	 0.695389	 0.783679	 0.544194 
Pt453	 0.618842	 0.827873	 0.544194 
Pt454	 0.625865	 0.751649	 0.588388 
Pt455	 0.549319	 0.795843	 0.588388 
Pt456	 0.618842	 0.827873	 0.632583 
Pt457	 0.542295	 0.872067	 0.632583 
Pt458	 0.549319	 0.795843	 0.676777 
Pt459	 0.472772	 0.840037	 0.676777 
Pt460	 0.542295	 0.872067	 0.720971 
Pt461	 0.465749	 0.916261	 0.720971 
Pt462	 0.472772	 0.840037	 0.765165 
Pt463	 0.396226	 0.884232	 0.765165 
Pt464	 0.841458	 0.771514	 0.323223 
Pt465	 0.841458	 0.771514	 0.411612 
Pt466	 0.764912	 0.815708	 0.411612 
Pt467	 0.764912	 0.815708	 0.500000 
Pt468	 0.688365	 0.859902	 0.500000 
Pt469	 0.688365	 0.859902	 0.588388 
Pt470	 0.611819	 0.904096	 0.588388 
Pt471	 0.611819	 0.904096	 0.676777 
Pt472	 0.535272	 0.948291	 0.676777 
Pt473	 0.535982	 0.154024	 0.455806 
Pt474	 0.466458	 0.121995	 0.500000 
Pt475	 0.535982	 0.154024	 0.544194 
Pt476	 0.459435	 0.198219	 0.544194 
Pt477	 0.466458	 0.121995	 0.588388 
Pt478	 0.389912	 0.166189	 0.588388 
Pt479	 0.459435	 0.198219	 0.632583 
Pt480	 0.382889	 0.242413	 0.632583 
Pt481	 0.389912	 0.166189	 0.676777 
Pt482	 0.313365	 0.210383	 0.676777 
Pt483	 0.382889	 0.242413	 0.720971 
Pt484	 0.306342	 0.286607	 0.720971 
Pt485	 0.675028	 0.218083	 0.367417 
Pt486	 0.605505	 0.186054	 0.411612 
Pt487	 0.675028	 0.218083	 0.455806 
Pt488	 0.598482	 0.262278	 0.455806 
Pt489	 0.605505	 0.186054	 0.500000 
Pt490	 0.528958	 0.230248	 0.500000 
Pt491	 0.598482	 0.262278	 0.544194 
Pt492	 0.521935	 0.306472	 0.544194 
Pt493	 0.528958	 0.230248	 0.588388 
Pt494	 0.452412	 0.274442	 0.588388 
Pt495	 0.521935	 0.306472	 0.632583 
Pt496	 0.445389	 0.350666	 0.632583 
Pt497	 0.452412	 0.274442	 0.676777 
Pt498	 0.375865	 0.318636	 0.676777 
Pt499	 0.445389	 0.350666	 0.720971 
Pt500	 0.368842	 0.394860	 0.720971 
Pt501	 0.375865	 0.318636	 0.765165 
Pt502	 0.299319	 0.362831	 0.765165 
Pt503	 0.368842	 0.394860	 0.809359 
Pt504	 0.292295	 0.439054	 0.809359 
Pt505	 0.744551	 0.250113	 0.323223 
Pt506	 0.814075	 0.282142	 0.367417 
Pt507	 0.737528	 0.326337	 0.367417 
Pt508	 0.744551	 0.250113	 0.411612 
Pt509	 0.668005	 0.294307	 0.411612 
Pt510	 0.737528	 0.326337	 0.455806 
Pt511	 0.660982	 0.370531	 0.455806 
Pt512	 0.668005	 0.294307	 0.500000 
Pt513	 0.591458	 0.338501	 0.500000 
Pt514	 0.660982	 0.370531	 0.544194 
Pt515	 0.584435	 0.414725	 0.544194 
Pt516	 0.591458	 0.338501	 0.588388 
Pt517	 0.514912	 0.382695	 0.588388 
Pt518	 0.584435	 0.414725	 0.632583 
Pt519	 0.507889	 0.458919	 0.632583 
Pt520	 0.514912	 0.382695	 0.676777 
Pt521	 0.438365	 0.426890	 0.676777 
Pt522	 0.507889	 0.458919	 0.720971 
Pt523	 0.431342	 0.503113	 0.720971 
Pt524	 0.438365	 0.426890	 0.765165 
Pt525	 0.361819	 0.471084	 0.765165 
Pt526	 0.431342	 0.503113	 0.809359 
Pt527	 0.354795	 0.547307	 0.809359 
Pt528	 0.361819	 0.471084	 0.853553 
Pt529	 0.285272	 0.515278	 0.853553 
Pt530	 0.354795	 0.547307	 0.897748 
Pt531	 0.807051	 0.358366	 0.323223 
Pt532	 0.876575	 0.390396	 0.367417 
Pt533	 0.800028	 0.434590	 0.367417 
Pt534	 0.807051	 0.358366	 0.411612 
Pt535	 0.730505	 0.402560	 0.411612 
Pt536	 0.800028	 0.434590	 0.455806 
Pt537	 0.723482	 0.478784	 0.455806 
Pt538	 0.730505	 0.402560	 0.500000 
Pt539	 0.653958	 0.446754	 0.500000 
Pt540	 0.723482	 0.478784	 0.544194 
Pt541	 0.646935	 0.522978	 0.544194 
Pt542	 0.653958	 0.446754	 0.588388 
Pt543	 0.577412	 0.490949	 0.588388 
Pt544	 0.646935	 0.522978	 0.632583 
Pt545	 0.570389	 0.567172	 0.632583 
Pt546	 0.577412	 0.490949	 0.676777 
Pt547	 0.500865	 0.535143	 0.676777 
Pt548	 0.570389	 0.567172	 0.720971 
Pt549	 0.493842	 0.611366	 0.720971 
Pt550	 0.500865	 0.535143	 0.765165 
Pt551	 0.424319	 0.579337	 0.765165 
Pt552	 0.493842	 0.611366	 0.809359 
Pt553	 0.417295	 0.655561	 0.809359 
Pt554	 0.424319	 0.579337	 0.853553 
Pt555	 0.347772	 0.623531	 0.853553 
Pt556	 0.417295	 0.655561	 0.897748 
Pt557	 0.869551	 0.466619	 0.323223 
Pt558	 0.862528	 0.542843	 0.367417 
Pt559	 0.869551	 0.466619	 0.411612 
Pt560	 0.793005	 0.510813	 0.411612 
Pt561	 0.862528	 0.542843	 0.455806 
Pt562	 0.785982	 0.587037	 0.455806 
Pt563	 0.793005	 0.510813	 0.500000 
Pt564	 0.716458	 0.555008	 0.500000 
Pt565	 0.785982	 0.587037	 0.544194 
Pt566	 0.709435	 0.631231	 0.544194 
Pt567	 0.716458	 0.555008	 0.588388 
Pt568	 0.639912	 0.599202	 0.588388 
Pt569	 0.709435	 0.631231	 0.632583 
Pt570	 0.632889	 0.675425	 0.632583 
Pt571	 0.639912	 0.599202	 0.676777 
Pt572	 0.563365	 0.643396	 0.676777 
Pt573	 0.632889	 0.675425	 0.720971 
Pt574	 0.556342	 0.719620	 0.720971 
Pt575	 0.563365	 0.643396	 0.765165 
Pt576	 0.486819	 0.687590	 0.765165 
Pt577	 0.556342	 0.719620	 0.809359 
Pt578	 0.479795	 0.763814	 0.809359 
Pt579	 0.486819	 0.687590	 0.853553 
Pt580	 0.410272	 0.731784	 0.853553 
Pt581	 0.855505	 0.619067	 0.411612 
Pt582	 0.848482	 0.695290	 0.455806 
Pt583	 0.855505	 0.619067	 0.500000 
Pt584	 0.778958	 0.663261	 0.500000 
Pt585	 0.848482	 0.695290	 0.544194 
Pt586	 0.771935	 0.739484	 0.544194 
Pt587	 0.778958	 0.663261	 0.588388 
Pt588	 0.702412	 0.707455	 0.588388 
Pt589	 0.771935	 0.739484	 0.632583 
Pt590	 0.695389	 0.783679	 0.632583 
Pt591	 0.702412	 0.707455	 0.676777 
Pt592	 0.625865	 0.751649	 0.676777 
Pt593	 0.695389	 0.783679	 0.720971 
Pt594	 0.618842	 0.827873	 0.720971 
Pt595	 0.625865	 0.751649	 0.765165 
Pt596	 0.549319	 0.795843	 0.765165 
Pt597	 0.841458	 0.771514	 0.500000 
Pt598	 0.841458	 0.771514	 0.588388 
Pt599	 0.764912	 0.815708	 0.588388 
Pt600	 0.764912	 0.815708	 0.676777 
Pt601	 0.688365	 0.859902	 0.676777 
Pt602	 0.535982	 0.154024	 0.632583 
Pt603	 0.466458	 0.121995	 0.676777 
Pt604	 0.535982	 0.154024	 0.720971 
Pt605	 0.459435	 0.198219	 0.720971 
Pt606	 0.675028	 0.218083	 0.544194 
Pt607	 0.605505	 0.186054	 0.588388 
Pt608	 0.675028	 0.218083	 0.632583 
Pt609	 0.598482	 0.262278	 0.632583 
Pt610	 0.605505	 0.186054	 0.676777 
Pt611	 0.528958	 0.230248	 0.676777 
Pt612	 0.598482	 0.262278	 0.720971 
Pt613	 0.521935	 0.306472	 0.720971 
Pt614	 0.528958	 0.230248	 0.765165 
Pt615	 0.452412	 0.274442	 0.765165 
Pt616	 0.521935	 0.306472	 0.809359 
Pt617	 0.445389	 0.350666	 0.809359 
Pt618	 0.814075	 0.282142	 0.455806 
Pt619	 0.744551	 0.250113	 0.500000 
Pt620	 0.814075	 0.282142	 0.544194 
Pt621	 0.737528	 0.326337	 0.544194 
Pt622	 0.744551	 0.250113	 0.588388 
Pt623	 0.668005	 0.294307	 0.588388 
Pt624	 0.737528	 0.326337	 0.632583 
Pt625	 0.660982	 0.370531	 0.632583 
Pt626	 0.668005	 0.294307	 0.676777 
Pt627	 0.591458	 0.338501	 0.676777 
Pt628	 0.660982	 0.370531	 0.720971 
Pt629	 0.584435	 0.414725	 0.720971 
Pt630	 0.591458	 0.338501	 0.765165 
Pt631	 0.514912	 0.382695	 0.765165 
Pt632	 0.584435	 0.414725	 0.809359 
Pt633	 0.507889	 0.458919	 0.809359 
Pt634	 0.514912	 0.382695	 0.853553 
Pt635	 0.438365	 0.426890	 0.853553 
Pt636	 0.507889	 0.458919	 0.897748 
Pt637	 0.431342	 0.503113	 0.897748 
Pt638	 0.883598	 0.314172	 0.411612 
Pt639	 0.876575	 0.390396	 0.455806 
Pt640	 0.883598	 0.314172	 0.500000 
Pt641	 0.807051	 0.358366	 0.500000 
Pt642	 0.876575	 0.390396	 0.544194 
Pt643	 0.800028	 0.434590	 0.544194 
Pt644	 0.807051	 0.358366	 0.588388 
Pt645	 0.730505	 0.402560	 0.588388 
Pt646	 0.800028	 0.434590	 0.632583 
Pt647	 0.723482	 0.478784	 0.632583 
Pt648	 0.730505	 0.402560	 0.676777 
Pt649	 0.653958	 0.446754	 0.676777 
Pt650	 0.723482	 0.478784	 0.720971 
Pt651	 0.646935	 0.522978	 0.720971 
Pt652	 0.653958	 0.446754	 0.765165 
Pt653	 0.577412	 0.490949	 0.765165 
Pt654	 0.646935	 0.522978	 0.809359 
Pt655	 0.570389	 0.567172	 0.809359 
Pt656	 0.577412	 0.490949	 0.853553 
Pt657	 0.500865	 0.535143	 0.853553 
Pt658	 0.570389	 0.567172	 0.897748 
Pt659	 0.493842	 0.611366	 0.897748 
Pt660	 0.500865	 0.535143	 0.941942 
Pt661	 0.424319	 0.579337	 0.941942 
Pt662	 0.869551	 0.466619	 0.500000 
Pt663	 0.862528	 0.542843	 0.544194 
Pt664	 0.869551	 0.466619	 0.588388 
Pt665	 0.793005	 0.510813	 0.588388 
Pt666	 0.862528	 0.542843	 0.632583 
Pt667	 0.785982	 0.587037	 0.632583 
Pt668	 0.793005	 0.510813	 0.676777 
Pt669	 0.716458	 0.555008	 0.676777 
Pt670	 0.785982	 0.587037	 0.720971 
Pt671	 0.709435	 0.631231	 0.720971 
Pt672	 0.716458	 0.555008	 0.765165 
Pt673	 0.639912	 0.599202	 0.765165 
Pt674	 0.709435	 0.631231	 0.809359 
Pt675	 0.632889	 0.675425	 0.809359 
Pt676	 0.639912	 0.599202	 0.853553 
Pt677	 0.563365	 0.643396	 0.853553 
Pt678	 0.855505	 0.619067	 0.588388 
Pt679	 0.848482	 0.695290	 0.632583 
Pt680	 0.855505	 0.619067	 0.676777 
Pt681	 0.778958	 0.663261	 0.676777 
Pt682	 0.848482	 0.695290	 0.720971 
Pt683	 0.771935	 0.739484	 0.720971 
Pt684	 0.778958	 0.663261	 0.765165 
Pt685	 0.702412	 0.707455	 0.765165 
Pt686	 0.841458	 0.771514	 0.676777 
Pt687	 0.675028	 0.218083	 0.720971 
Pt688	 0.605505	 0.186054	 0.765165 
Pt689	 0.598482	 0.262278	 0.809359 
Pt690	 0.814075	 0.282142	 0.632583 
Pt691	 0.744551	 0.250113	 0.676777 
Pt692	 0.737528	 0.326337	 0.720971 
Pt693	 0.668005	 0.294307	 0.765165 
Pt694	 0.660982	 0.370531	 0.809359 
Pt695	 0.591458	 0.338501	 0.853553 
Pt696	 0.584435	 0.414725	 0.897748 
Pt697	 0.883598	 0.314172	 0.588388 
Pt698	 0.876575	 0.390396	 0.632583 
Pt699	 0.807051	 0.358366	 0.676777 
Pt700	 0.800028	 0.434590	 0.720971 
Pt701	 0.730505	 0.402560	 0.765165 
Pt702	 0.723482	 0.478784	 0.809359 
Pt703	 0.653958	 0.446754	 0.853553 
Pt704	 0.646935	 0.522978	 0.897748 
Pt705	 0.577412	 0.490949	 0.941942 
Pt706	 0.869551	 0.466619	 0.676777 
Pt707	 0.862528	 0.542843	 0.720971 
Pt708	 0.793005	 0.510813	 0.765165 
Pt709	 0.785982	 0.587037	 0.809359 
Pt710	 0.716458	 0.555008	 0.853553 
Pt711	 0.855505	 0.619067	 0.765165 
#                 ---end-of-data-block---
