data_A fcc partile with size of 24 A with 100/111/110 ratio of 1/0.965766/2
_cell_length_a               31.360000
_cell_length_b               31.360000
_cell_length_c               31.360000
_cell_angle_alpha          90.000000
_cell_angle_beta           90.000000
_cell_angle_gamma          90.000000
_symmetry_cell_setting          Triclinic
_symmetry_space_group_name_H-M 'P 1' 
loop_
_atom_site_label
_atom_site_fract_x
_atom_site_fract_y
_atom_site_fract_z
Pt1	 0.253141	 0.423291	 0.187500 
Pt2	 0.423894	 0.377538	 0.187500 
Pt3	 0.392644	 0.431664	 0.125000 
Pt4	 0.338517	 0.400414	 0.187500 
Pt5	 0.307267	 0.454541	 0.125000 
Pt6	 0.361394	 0.485791	 0.187500 
Pt7	 0.330144	 0.539918	 0.125000 
Pt8	 0.276017	 0.508668	 0.187500 
Pt9	 0.298894	 0.594044	 0.187500 
Pt10	 0.594647	 0.331785	 0.187500 
Pt11	 0.563397	 0.385911	 0.125000 
Pt12	 0.509271	 0.354661	 0.187500 
Pt13	 0.478021	 0.408788	 0.125000 
Pt14	 0.532147	 0.440038	 0.187500 
Pt15	 0.500897	 0.494164	 0.125000 
Pt16	 0.446771	 0.462914	 0.187500 
Pt17	 0.415521	 0.517041	 0.125000 
Pt18	 0.469647	 0.548291	 0.187500 
Pt19	 0.438397	 0.602418	 0.125000 
Pt20	 0.384271	 0.571168	 0.187500 
Pt21	 0.353021	 0.625294	 0.125000 
Pt22	 0.407147	 0.656544	 0.187500 
Pt23	 0.375897	 0.710671	 0.125000 
Pt24	 0.321771	 0.679421	 0.187500 
Pt25	 0.344647	 0.764797	 0.187500 
Pt26	 0.680024	 0.308908	 0.187500 
Pt27	 0.648774	 0.363035	 0.125000 
Pt28	 0.702900	 0.394285	 0.187500 
Pt29	 0.671650	 0.448411	 0.125000 
Pt30	 0.617524	 0.417161	 0.187500 
Pt31	 0.586274	 0.471288	 0.125000 
Pt32	 0.640400	 0.502538	 0.187500 
Pt33	 0.609150	 0.556664	 0.125000 
Pt34	 0.555024	 0.525414	 0.187500 
Pt35	 0.523774	 0.579541	 0.125000 
Pt36	 0.577900	 0.610791	 0.187500 
Pt37	 0.546650	 0.664918	 0.125000 
Pt38	 0.492524	 0.633668	 0.187500 
Pt39	 0.461274	 0.687794	 0.125000 
Pt40	 0.515400	 0.719044	 0.187500 
Pt41	 0.484150	 0.773171	 0.125000 
Pt42	 0.430024	 0.741921	 0.187500 
Pt43	 0.398774	 0.796047	 0.125000 
Pt44	 0.452900	 0.827297	 0.187500 
Pt45	 0.367524	 0.850174	 0.187500 
Pt46	 0.725777	 0.479661	 0.187500 
Pt47	 0.694527	 0.533788	 0.125000 
Pt48	 0.748653	 0.565038	 0.187500 
Pt49	 0.717403	 0.619164	 0.125000 
Pt50	 0.663277	 0.587914	 0.187500 
Pt51	 0.632027	 0.642041	 0.125000 
Pt52	 0.686153	 0.673291	 0.187500 
Pt53	 0.654903	 0.727418	 0.125000 
Pt54	 0.600777	 0.696168	 0.187500 
Pt55	 0.569527	 0.750294	 0.125000 
Pt56	 0.623653	 0.781544	 0.187500 
Pt57	 0.538277	 0.804421	 0.187500 
Pt58	 0.771530	 0.650414	 0.187500 
Pt59	 0.740280	 0.704541	 0.125000 
Pt60	 0.794407	 0.735791	 0.187500 
Pt61	 0.709030	 0.758668	 0.187500 
Pt62	 0.315641	 0.315038	 0.312500 
Pt63	 0.284391	 0.369164	 0.250000 
Pt64	 0.230264	 0.337914	 0.312500 
Pt65	 0.199014	 0.392041	 0.250000 
Pt66	 0.253141	 0.423291	 0.312500 
Pt67	 0.221891	 0.477418	 0.250000 
Pt68	 0.167764	 0.446168	 0.312500 
Pt69	 0.190641	 0.531544	 0.312500 
Pt70	 0.486394	 0.269285	 0.312500 
Pt71	 0.455144	 0.323411	 0.250000 
Pt72	 0.401017	 0.292161	 0.312500 
Pt73	 0.369767	 0.346288	 0.250000 
Pt74	 0.423894	 0.377538	 0.312500 
Pt75	 0.392644	 0.431664	 0.250000 
Pt76	 0.338517	 0.400414	 0.312500 
Pt77	 0.307267	 0.454541	 0.250000 
Pt78	 0.361394	 0.485791	 0.312500 
Pt79	 0.330144	 0.539918	 0.250000 
Pt80	 0.276017	 0.508668	 0.312500 
Pt81	 0.244767	 0.562794	 0.250000 
Pt82	 0.298894	 0.594044	 0.312500 
Pt83	 0.267644	 0.648171	 0.250000 
Pt84	 0.213517	 0.616921	 0.312500 
Pt85	 0.236394	 0.702297	 0.312500 
Pt86	 0.657147	 0.223532	 0.312500 
Pt87	 0.625897	 0.277658	 0.250000 
Pt88	 0.571771	 0.246408	 0.312500 
Pt89	 0.540521	 0.300535	 0.250000 
Pt90	 0.594647	 0.331785	 0.312500 
Pt91	 0.563397	 0.385911	 0.250000 
Pt92	 0.509271	 0.354661	 0.312500 
Pt93	 0.478021	 0.408788	 0.250000 
Pt94	 0.532147	 0.440038	 0.312500 
Pt95	 0.500897	 0.494164	 0.250000 
Pt96	 0.446771	 0.462914	 0.312500 
Pt97	 0.415521	 0.517041	 0.250000 
Pt98	 0.469647	 0.548291	 0.312500 
Pt99	 0.438397	 0.602418	 0.250000 
Pt100	 0.384271	 0.571168	 0.312500 
Pt101	 0.353021	 0.625294	 0.250000 
Pt102	 0.407147	 0.656544	 0.312500 
Pt103	 0.375897	 0.710671	 0.250000 
Pt104	 0.321771	 0.679421	 0.312500 
Pt105	 0.290521	 0.733547	 0.250000 
Pt106	 0.344647	 0.764797	 0.312500 
Pt107	 0.313397	 0.818924	 0.250000 
Pt108	 0.259271	 0.787674	 0.312500 
Pt109	 0.282147	 0.873051	 0.312500 
Pt110	 0.711274	 0.254782	 0.250000 
Pt111	 0.765400	 0.286032	 0.312500 
Pt112	 0.734150	 0.340158	 0.250000 
Pt113	 0.680024	 0.308908	 0.312500 
Pt114	 0.648774	 0.363035	 0.250000 
Pt115	 0.702900	 0.394285	 0.312500 
Pt116	 0.671650	 0.448411	 0.250000 
Pt117	 0.617524	 0.417161	 0.312500 
Pt118	 0.586274	 0.471288	 0.250000 
Pt119	 0.640400	 0.502538	 0.312500 
Pt120	 0.609150	 0.556664	 0.250000 
Pt121	 0.555024	 0.525414	 0.312500 
Pt122	 0.523774	 0.579541	 0.250000 
Pt123	 0.577900	 0.610791	 0.312500 
Pt124	 0.546650	 0.664918	 0.250000 
Pt125	 0.492524	 0.633668	 0.312500 
Pt126	 0.461274	 0.687794	 0.250000 
Pt127	 0.515400	 0.719044	 0.312500 
Pt128	 0.484150	 0.773171	 0.250000 
Pt129	 0.430024	 0.741921	 0.312500 
Pt130	 0.398774	 0.796047	 0.250000 
Pt131	 0.452900	 0.827297	 0.312500 
Pt132	 0.421650	 0.881424	 0.250000 
Pt133	 0.367524	 0.850174	 0.312500 
Pt134	 0.336274	 0.904301	 0.250000 
Pt135	 0.390400	 0.935551	 0.312500 
Pt136	 0.788277	 0.371408	 0.312500 
Pt137	 0.757027	 0.425535	 0.250000 
Pt138	 0.811153	 0.456785	 0.312500 
Pt139	 0.779903	 0.510911	 0.250000 
Pt140	 0.725777	 0.479661	 0.312500 
Pt141	 0.694527	 0.533788	 0.250000 
Pt142	 0.748653	 0.565038	 0.312500 
Pt143	 0.717403	 0.619164	 0.250000 
Pt144	 0.663277	 0.587914	 0.312500 
Pt145	 0.632027	 0.642041	 0.250000 
Pt146	 0.686153	 0.673291	 0.312500 
Pt147	 0.654903	 0.727418	 0.250000 
Pt148	 0.600777	 0.696168	 0.312500 
Pt149	 0.569527	 0.750294	 0.250000 
Pt150	 0.623653	 0.781544	 0.312500 
Pt151	 0.592403	 0.835671	 0.250000 
Pt152	 0.538277	 0.804421	 0.312500 
Pt153	 0.507027	 0.858547	 0.250000 
Pt154	 0.561153	 0.889797	 0.312500 
Pt155	 0.475777	 0.912674	 0.312500 
Pt156	 0.834030	 0.542161	 0.312500 
Pt157	 0.802780	 0.596288	 0.250000 
Pt158	 0.856907	 0.627538	 0.312500 
Pt159	 0.825657	 0.681664	 0.250000 
Pt160	 0.771530	 0.650414	 0.312500 
Pt161	 0.740280	 0.704541	 0.250000 
Pt162	 0.794407	 0.735791	 0.312500 
Pt163	 0.763157	 0.789918	 0.250000 
Pt164	 0.709030	 0.758668	 0.312500 
Pt165	 0.677780	 0.812794	 0.250000 
Pt166	 0.731907	 0.844044	 0.312500 
Pt167	 0.646530	 0.866921	 0.312500 
Pt168	 0.879783	 0.712914	 0.312500 
Pt169	 0.848533	 0.767041	 0.250000 
Pt170	 0.817283	 0.821168	 0.312500 
Pt171	 0.378141	 0.206785	 0.437500 
Pt172	 0.346891	 0.260911	 0.375000 
Pt173	 0.292764	 0.229661	 0.437500 
Pt174	 0.261514	 0.283788	 0.375000 
Pt175	 0.315641	 0.315038	 0.437500 
Pt176	 0.284391	 0.369164	 0.375000 
Pt177	 0.230264	 0.337914	 0.437500 
Pt178	 0.199014	 0.392041	 0.375000 
Pt179	 0.253141	 0.423291	 0.437500 
Pt180	 0.221891	 0.477418	 0.375000 
Pt181	 0.167764	 0.446168	 0.437500 
Pt182	 0.136514	 0.500294	 0.375000 
Pt183	 0.190641	 0.531544	 0.437500 
Pt184	 0.159391	 0.585671	 0.375000 
Pt185	 0.105264	 0.554421	 0.437500 
Pt186	 0.128141	 0.639797	 0.437500 
Pt187	 0.548894	 0.161032	 0.437500 
Pt188	 0.517644	 0.215158	 0.375000 
Pt189	 0.463517	 0.183908	 0.437500 
Pt190	 0.432267	 0.238035	 0.375000 
Pt191	 0.486394	 0.269285	 0.437500 
Pt192	 0.455144	 0.323411	 0.375000 
Pt193	 0.401017	 0.292161	 0.437500 
Pt194	 0.369767	 0.346288	 0.375000 
Pt195	 0.423894	 0.377538	 0.437500 
Pt196	 0.392644	 0.431664	 0.375000 
Pt197	 0.338517	 0.400414	 0.437500 
Pt198	 0.307267	 0.454541	 0.375000 
Pt199	 0.361394	 0.485791	 0.437500 
Pt200	 0.330144	 0.539918	 0.375000 
Pt201	 0.276017	 0.508668	 0.437500 
Pt202	 0.244767	 0.562794	 0.375000 
Pt203	 0.298894	 0.594044	 0.437500 
Pt204	 0.267644	 0.648171	 0.375000 
Pt205	 0.213517	 0.616921	 0.437500 
Pt206	 0.182267	 0.671047	 0.375000 
Pt207	 0.236394	 0.702297	 0.437500 
Pt208	 0.205144	 0.756424	 0.375000 
Pt209	 0.151017	 0.725174	 0.437500 
Pt210	 0.173894	 0.810551	 0.437500 
Pt211	 0.603021	 0.192282	 0.375000 
Pt212	 0.657147	 0.223532	 0.437500 
Pt213	 0.625897	 0.277658	 0.375000 
Pt214	 0.571771	 0.246408	 0.437500 
Pt215	 0.540521	 0.300535	 0.375000 
Pt216	 0.594647	 0.331785	 0.437500 
Pt217	 0.563397	 0.385911	 0.375000 
Pt218	 0.509271	 0.354661	 0.437500 
Pt219	 0.478021	 0.408788	 0.375000 
Pt220	 0.532147	 0.440038	 0.437500 
Pt221	 0.500897	 0.494164	 0.375000 
Pt222	 0.446771	 0.462914	 0.437500 
Pt223	 0.415521	 0.517041	 0.375000 
Pt224	 0.469647	 0.548291	 0.437500 
Pt225	 0.438397	 0.602418	 0.375000 
Pt226	 0.384271	 0.571168	 0.437500 
Pt227	 0.353021	 0.625294	 0.375000 
Pt228	 0.407147	 0.656544	 0.437500 
Pt229	 0.375897	 0.710671	 0.375000 
Pt230	 0.321771	 0.679421	 0.437500 
Pt231	 0.290521	 0.733547	 0.375000 
Pt232	 0.344647	 0.764797	 0.437500 
Pt233	 0.313397	 0.818924	 0.375000 
Pt234	 0.259271	 0.787674	 0.437500 
Pt235	 0.228021	 0.841801	 0.375000 
Pt236	 0.282147	 0.873051	 0.437500 
Pt237	 0.711274	 0.254782	 0.375000 
Pt238	 0.765400	 0.286032	 0.437500 
Pt239	 0.734150	 0.340158	 0.375000 
Pt240	 0.680024	 0.308908	 0.437500 
Pt241	 0.648774	 0.363035	 0.375000 
Pt242	 0.702900	 0.394285	 0.437500 
Pt243	 0.671650	 0.448411	 0.375000 
Pt244	 0.617524	 0.417161	 0.437500 
Pt245	 0.586274	 0.471288	 0.375000 
Pt246	 0.640400	 0.502538	 0.437500 
Pt247	 0.609150	 0.556664	 0.375000 
Pt248	 0.555024	 0.525414	 0.437500 
Pt249	 0.523774	 0.579541	 0.375000 
Pt250	 0.577900	 0.610791	 0.437500 
Pt251	 0.546650	 0.664918	 0.375000 
Pt252	 0.492524	 0.633668	 0.437500 
Pt253	 0.461274	 0.687794	 0.375000 
Pt254	 0.515400	 0.719044	 0.437500 
Pt255	 0.484150	 0.773171	 0.375000 
Pt256	 0.430024	 0.741921	 0.437500 
Pt257	 0.398774	 0.796047	 0.375000 
Pt258	 0.452900	 0.827297	 0.437500 
Pt259	 0.421650	 0.881424	 0.375000 
Pt260	 0.367524	 0.850174	 0.437500 
Pt261	 0.336274	 0.904301	 0.375000 
Pt262	 0.390400	 0.935551	 0.437500 
Pt263	 0.819527	 0.317282	 0.375000 
Pt264	 0.873653	 0.348532	 0.437500 
Pt265	 0.842403	 0.402658	 0.375000 
Pt266	 0.788277	 0.371408	 0.437500 
Pt267	 0.757027	 0.425535	 0.375000 
Pt268	 0.811153	 0.456785	 0.437500 
Pt269	 0.779903	 0.510911	 0.375000 
Pt270	 0.725777	 0.479661	 0.437500 
Pt271	 0.694527	 0.533788	 0.375000 
Pt272	 0.748653	 0.565038	 0.437500 
Pt273	 0.717403	 0.619164	 0.375000 
Pt274	 0.663277	 0.587914	 0.437500 
Pt275	 0.632027	 0.642041	 0.375000 
Pt276	 0.686153	 0.673291	 0.437500 
Pt277	 0.654903	 0.727418	 0.375000 
Pt278	 0.600777	 0.696168	 0.437500 
Pt279	 0.569527	 0.750294	 0.375000 
Pt280	 0.623653	 0.781544	 0.437500 
Pt281	 0.592403	 0.835671	 0.375000 
Pt282	 0.538277	 0.804421	 0.437500 
Pt283	 0.507027	 0.858547	 0.375000 
Pt284	 0.561153	 0.889797	 0.437500 
Pt285	 0.529903	 0.943924	 0.375000 
Pt286	 0.475777	 0.912674	 0.437500 
Pt287	 0.444527	 0.966801	 0.375000 
Pt288	 0.498653	 0.998051	 0.437500 
Pt289	 0.896530	 0.433908	 0.437500 
Pt290	 0.865280	 0.488035	 0.375000 
Pt291	 0.919407	 0.519285	 0.437500 
Pt292	 0.888157	 0.573411	 0.375000 
Pt293	 0.834030	 0.542161	 0.437500 
Pt294	 0.802780	 0.596288	 0.375000 
Pt295	 0.856907	 0.627538	 0.437500 
Pt296	 0.825657	 0.681664	 0.375000 
Pt297	 0.771530	 0.650414	 0.437500 
Pt298	 0.740280	 0.704541	 0.375000 
Pt299	 0.794407	 0.735791	 0.437500 
Pt300	 0.763157	 0.789918	 0.375000 
Pt301	 0.709030	 0.758668	 0.437500 
Pt302	 0.677780	 0.812794	 0.375000 
Pt303	 0.731907	 0.844044	 0.437500 
Pt304	 0.700657	 0.898171	 0.375000 
Pt305	 0.646530	 0.866921	 0.437500 
Pt306	 0.615280	 0.921047	 0.375000 
Pt307	 0.669407	 0.952297	 0.437500 
Pt308	 0.584030	 0.975174	 0.437500 
Pt309	 0.942283	 0.604661	 0.437500 
Pt310	 0.911033	 0.658788	 0.375000 
Pt311	 0.879783	 0.712914	 0.437500 
Pt312	 0.848533	 0.767041	 0.375000 
Pt313	 0.817283	 0.821168	 0.437500 
Pt314	 0.786033	 0.875294	 0.375000 
Pt315	 0.754783	 0.929421	 0.437500 
Pt316	 0.409391	 0.152658	 0.500000 
Pt317	 0.324014	 0.175535	 0.500000 
Pt318	 0.378141	 0.206785	 0.562500 
Pt319	 0.346891	 0.260911	 0.500000 
Pt320	 0.292764	 0.229661	 0.562500 
Pt321	 0.261514	 0.283788	 0.500000 
Pt322	 0.315641	 0.315038	 0.562500 
Pt323	 0.284391	 0.369164	 0.500000 
Pt324	 0.230264	 0.337914	 0.562500 
Pt325	 0.199014	 0.392041	 0.500000 
Pt326	 0.253141	 0.423291	 0.562500 
Pt327	 0.221891	 0.477418	 0.500000 
Pt328	 0.167764	 0.446168	 0.562500 
Pt329	 0.136514	 0.500294	 0.500000 
Pt330	 0.190641	 0.531544	 0.562500 
Pt331	 0.159391	 0.585671	 0.500000 
Pt332	 0.105264	 0.554421	 0.562500 
Pt333	 0.074014	 0.608547	 0.500000 
Pt334	 0.128141	 0.639797	 0.562500 
Pt335	 0.096891	 0.693924	 0.500000 
Pt336	 0.494767	 0.129782	 0.500000 
Pt337	 0.548894	 0.161032	 0.562500 
Pt338	 0.517644	 0.215158	 0.500000 
Pt339	 0.463517	 0.183908	 0.562500 
Pt340	 0.432267	 0.238035	 0.500000 
Pt341	 0.486394	 0.269285	 0.562500 
Pt342	 0.455144	 0.323411	 0.500000 
Pt343	 0.401017	 0.292161	 0.562500 
Pt344	 0.369767	 0.346288	 0.500000 
Pt345	 0.423894	 0.377538	 0.562500 
Pt346	 0.392644	 0.431664	 0.500000 
Pt347	 0.338517	 0.400414	 0.562500 
Pt348	 0.307267	 0.454541	 0.500000 
Pt349	 0.361394	 0.485791	 0.562500 
Pt350	 0.330144	 0.539918	 0.500000 
Pt351	 0.276017	 0.508668	 0.562500 
Pt352	 0.244767	 0.562794	 0.500000 
Pt353	 0.298894	 0.594044	 0.562500 
Pt354	 0.267644	 0.648171	 0.500000 
Pt355	 0.213517	 0.616921	 0.562500 
Pt356	 0.182267	 0.671047	 0.500000 
Pt357	 0.236394	 0.702297	 0.562500 
Pt358	 0.205144	 0.756424	 0.500000 
Pt359	 0.151017	 0.725174	 0.562500 
Pt360	 0.119767	 0.779301	 0.500000 
Pt361	 0.173894	 0.810551	 0.562500 
Pt362	 0.603021	 0.192282	 0.500000 
Pt363	 0.657147	 0.223532	 0.562500 
Pt364	 0.625897	 0.277658	 0.500000 
Pt365	 0.571771	 0.246408	 0.562500 
Pt366	 0.540521	 0.300535	 0.500000 
Pt367	 0.594647	 0.331785	 0.562500 
Pt368	 0.563397	 0.385911	 0.500000 
Pt369	 0.509271	 0.354661	 0.562500 
Pt370	 0.478021	 0.408788	 0.500000 
Pt371	 0.532147	 0.440038	 0.562500 
Pt372	 0.500897	 0.494164	 0.500000 
Pt373	 0.446771	 0.462914	 0.562500 
Pt374	 0.415521	 0.517041	 0.500000 
Pt375	 0.469647	 0.548291	 0.562500 
Pt376	 0.438397	 0.602418	 0.500000 
Pt377	 0.384271	 0.571168	 0.562500 
Pt378	 0.353021	 0.625294	 0.500000 
Pt379	 0.407147	 0.656544	 0.562500 
Pt380	 0.375897	 0.710671	 0.500000 
Pt381	 0.321771	 0.679421	 0.562500 
Pt382	 0.290521	 0.733547	 0.500000 
Pt383	 0.344647	 0.764797	 0.562500 
Pt384	 0.313397	 0.818924	 0.500000 
Pt385	 0.259271	 0.787674	 0.562500 
Pt386	 0.228021	 0.841801	 0.500000 
Pt387	 0.282147	 0.873051	 0.562500 
Pt388	 0.711274	 0.254782	 0.500000 
Pt389	 0.765400	 0.286032	 0.562500 
Pt390	 0.734150	 0.340158	 0.500000 
Pt391	 0.680024	 0.308908	 0.562500 
Pt392	 0.648774	 0.363035	 0.500000 
Pt393	 0.702900	 0.394285	 0.562500 
Pt394	 0.671650	 0.448411	 0.500000 
Pt395	 0.617524	 0.417161	 0.562500 
Pt396	 0.586274	 0.471288	 0.500000 
Pt397	 0.640400	 0.502538	 0.562500 
Pt398	 0.609150	 0.556664	 0.500000 
Pt399	 0.555024	 0.525414	 0.562500 
Pt400	 0.523774	 0.579541	 0.500000 
Pt401	 0.577900	 0.610791	 0.562500 
Pt402	 0.546650	 0.664918	 0.500000 
Pt403	 0.492524	 0.633668	 0.562500 
Pt404	 0.461274	 0.687794	 0.500000 
Pt405	 0.515400	 0.719044	 0.562500 
Pt406	 0.484150	 0.773171	 0.500000 
Pt407	 0.430024	 0.741921	 0.562500 
Pt408	 0.398774	 0.796047	 0.500000 
Pt409	 0.452900	 0.827297	 0.562500 
Pt410	 0.421650	 0.881424	 0.500000 
Pt411	 0.367524	 0.850174	 0.562500 
Pt412	 0.336274	 0.904301	 0.500000 
Pt413	 0.390400	 0.935551	 0.562500 
Pt414	 0.819527	 0.317282	 0.500000 
Pt415	 0.873653	 0.348532	 0.562500 
Pt416	 0.842403	 0.402658	 0.500000 
Pt417	 0.788277	 0.371408	 0.562500 
Pt418	 0.757027	 0.425535	 0.500000 
Pt419	 0.811153	 0.456785	 0.562500 
Pt420	 0.779903	 0.510911	 0.500000 
Pt421	 0.725777	 0.479661	 0.562500 
Pt422	 0.694527	 0.533788	 0.500000 
Pt423	 0.748653	 0.565038	 0.562500 
Pt424	 0.717403	 0.619164	 0.500000 
Pt425	 0.663277	 0.587914	 0.562500 
Pt426	 0.632027	 0.642041	 0.500000 
Pt427	 0.686153	 0.673291	 0.562500 
Pt428	 0.654903	 0.727418	 0.500000 
Pt429	 0.600777	 0.696168	 0.562500 
Pt430	 0.569527	 0.750294	 0.500000 
Pt431	 0.623653	 0.781544	 0.562500 
Pt432	 0.592403	 0.835671	 0.500000 
Pt433	 0.538277	 0.804421	 0.562500 
Pt434	 0.507027	 0.858547	 0.500000 
Pt435	 0.561153	 0.889797	 0.562500 
Pt436	 0.529903	 0.943924	 0.500000 
Pt437	 0.475777	 0.912674	 0.562500 
Pt438	 0.444527	 0.966801	 0.500000 
Pt439	 0.498653	 0.998051	 0.562500 
Pt440	 0.927780	 0.379782	 0.500000 
Pt441	 0.950657	 0.465158	 0.500000 
Pt442	 0.896530	 0.433908	 0.562500 
Pt443	 0.865280	 0.488035	 0.500000 
Pt444	 0.919407	 0.519285	 0.562500 
Pt445	 0.888157	 0.573411	 0.500000 
Pt446	 0.834030	 0.542161	 0.562500 
Pt447	 0.802780	 0.596288	 0.500000 
Pt448	 0.856907	 0.627538	 0.562500 
Pt449	 0.825657	 0.681664	 0.500000 
Pt450	 0.771530	 0.650414	 0.562500 
Pt451	 0.740280	 0.704541	 0.500000 
Pt452	 0.794407	 0.735791	 0.562500 
Pt453	 0.763157	 0.789918	 0.500000 
Pt454	 0.709030	 0.758668	 0.562500 
Pt455	 0.677780	 0.812794	 0.500000 
Pt456	 0.731907	 0.844044	 0.562500 
Pt457	 0.700657	 0.898171	 0.500000 
Pt458	 0.646530	 0.866921	 0.562500 
Pt459	 0.615280	 0.921047	 0.500000 
Pt460	 0.669407	 0.952297	 0.562500 
Pt461	 0.584030	 0.975174	 0.562500 
Pt462	 0.973533	 0.550535	 0.500000 
Pt463	 0.942283	 0.604661	 0.562500 
Pt464	 0.911033	 0.658788	 0.500000 
Pt465	 0.879783	 0.712914	 0.562500 
Pt466	 0.848533	 0.767041	 0.500000 
Pt467	 0.817283	 0.821168	 0.562500 
Pt468	 0.786033	 0.875294	 0.500000 
Pt469	 0.754783	 0.929421	 0.562500 
Pt470	 0.723533	 0.983547	 0.500000 
Pt471	 0.346891	 0.260911	 0.625000 
Pt472	 0.261514	 0.283788	 0.625000 
Pt473	 0.315641	 0.315038	 0.687500 
Pt474	 0.284391	 0.369164	 0.625000 
Pt475	 0.230264	 0.337914	 0.687500 
Pt476	 0.199014	 0.392041	 0.625000 
Pt477	 0.253141	 0.423291	 0.687500 
Pt478	 0.221891	 0.477418	 0.625000 
Pt479	 0.167764	 0.446168	 0.687500 
Pt480	 0.136514	 0.500294	 0.625000 
Pt481	 0.190641	 0.531544	 0.687500 
Pt482	 0.159391	 0.585671	 0.625000 
Pt483	 0.517644	 0.215158	 0.625000 
Pt484	 0.432267	 0.238035	 0.625000 
Pt485	 0.486394	 0.269285	 0.687500 
Pt486	 0.455144	 0.323411	 0.625000 
Pt487	 0.401017	 0.292161	 0.687500 
Pt488	 0.369767	 0.346288	 0.625000 
Pt489	 0.423894	 0.377538	 0.687500 
Pt490	 0.392644	 0.431664	 0.625000 
Pt491	 0.338517	 0.400414	 0.687500 
Pt492	 0.307267	 0.454541	 0.625000 
Pt493	 0.361394	 0.485791	 0.687500 
Pt494	 0.330144	 0.539918	 0.625000 
Pt495	 0.276017	 0.508668	 0.687500 
Pt496	 0.244767	 0.562794	 0.625000 
Pt497	 0.298894	 0.594044	 0.687500 
Pt498	 0.267644	 0.648171	 0.625000 
Pt499	 0.213517	 0.616921	 0.687500 
Pt500	 0.182267	 0.671047	 0.625000 
Pt501	 0.236394	 0.702297	 0.687500 
Pt502	 0.205144	 0.756424	 0.625000 
Pt503	 0.603021	 0.192282	 0.625000 
Pt504	 0.657147	 0.223532	 0.687500 
Pt505	 0.625897	 0.277658	 0.625000 
Pt506	 0.571771	 0.246408	 0.687500 
Pt507	 0.540521	 0.300535	 0.625000 
Pt508	 0.594647	 0.331785	 0.687500 
Pt509	 0.563397	 0.385911	 0.625000 
Pt510	 0.509271	 0.354661	 0.687500 
Pt511	 0.478021	 0.408788	 0.625000 
Pt512	 0.532147	 0.440038	 0.687500 
Pt513	 0.500897	 0.494164	 0.625000 
Pt514	 0.446771	 0.462914	 0.687500 
Pt515	 0.415521	 0.517041	 0.625000 
Pt516	 0.469647	 0.548291	 0.687500 
Pt517	 0.438397	 0.602418	 0.625000 
Pt518	 0.384271	 0.571168	 0.687500 
Pt519	 0.353021	 0.625294	 0.625000 
Pt520	 0.407147	 0.656544	 0.687500 
Pt521	 0.375897	 0.710671	 0.625000 
Pt522	 0.321771	 0.679421	 0.687500 
Pt523	 0.290521	 0.733547	 0.625000 
Pt524	 0.344647	 0.764797	 0.687500 
Pt525	 0.313397	 0.818924	 0.625000 
Pt526	 0.259271	 0.787674	 0.687500 
Pt527	 0.228021	 0.841801	 0.625000 
Pt528	 0.282147	 0.873051	 0.687500 
Pt529	 0.711274	 0.254782	 0.625000 
Pt530	 0.765400	 0.286032	 0.687500 
Pt531	 0.734150	 0.340158	 0.625000 
Pt532	 0.680024	 0.308908	 0.687500 
Pt533	 0.648774	 0.363035	 0.625000 
Pt534	 0.702900	 0.394285	 0.687500 
Pt535	 0.671650	 0.448411	 0.625000 
Pt536	 0.617524	 0.417161	 0.687500 
Pt537	 0.586274	 0.471288	 0.625000 
Pt538	 0.640400	 0.502538	 0.687500 
Pt539	 0.609150	 0.556664	 0.625000 
Pt540	 0.555024	 0.525414	 0.687500 
Pt541	 0.523774	 0.579541	 0.625000 
Pt542	 0.577900	 0.610791	 0.687500 
Pt543	 0.546650	 0.664918	 0.625000 
Pt544	 0.492524	 0.633668	 0.687500 
Pt545	 0.461274	 0.687794	 0.625000 
Pt546	 0.515400	 0.719044	 0.687500 
Pt547	 0.484150	 0.773171	 0.625000 
Pt548	 0.430024	 0.741921	 0.687500 
Pt549	 0.398774	 0.796047	 0.625000 
Pt550	 0.452900	 0.827297	 0.687500 
Pt551	 0.421650	 0.881424	 0.625000 
Pt552	 0.367524	 0.850174	 0.687500 
Pt553	 0.336274	 0.904301	 0.625000 
Pt554	 0.390400	 0.935551	 0.687500 
Pt555	 0.819527	 0.317282	 0.625000 
Pt556	 0.842403	 0.402658	 0.625000 
Pt557	 0.788277	 0.371408	 0.687500 
Pt558	 0.757027	 0.425535	 0.625000 
Pt559	 0.811153	 0.456785	 0.687500 
Pt560	 0.779903	 0.510911	 0.625000 
Pt561	 0.725777	 0.479661	 0.687500 
Pt562	 0.694527	 0.533788	 0.625000 
Pt563	 0.748653	 0.565038	 0.687500 
Pt564	 0.717403	 0.619164	 0.625000 
Pt565	 0.663277	 0.587914	 0.687500 
Pt566	 0.632027	 0.642041	 0.625000 
Pt567	 0.686153	 0.673291	 0.687500 
Pt568	 0.654903	 0.727418	 0.625000 
Pt569	 0.600777	 0.696168	 0.687500 
Pt570	 0.569527	 0.750294	 0.625000 
Pt571	 0.623653	 0.781544	 0.687500 
Pt572	 0.592403	 0.835671	 0.625000 
Pt573	 0.538277	 0.804421	 0.687500 
Pt574	 0.507027	 0.858547	 0.625000 
Pt575	 0.561153	 0.889797	 0.687500 
Pt576	 0.529903	 0.943924	 0.625000 
Pt577	 0.475777	 0.912674	 0.687500 
Pt578	 0.444527	 0.966801	 0.625000 
Pt579	 0.865280	 0.488035	 0.625000 
Pt580	 0.888157	 0.573411	 0.625000 
Pt581	 0.834030	 0.542161	 0.687500 
Pt582	 0.802780	 0.596288	 0.625000 
Pt583	 0.856907	 0.627538	 0.687500 
Pt584	 0.825657	 0.681664	 0.625000 
Pt585	 0.771530	 0.650414	 0.687500 
Pt586	 0.740280	 0.704541	 0.625000 
Pt587	 0.794407	 0.735791	 0.687500 
Pt588	 0.763157	 0.789918	 0.625000 
Pt589	 0.709030	 0.758668	 0.687500 
Pt590	 0.677780	 0.812794	 0.625000 
Pt591	 0.731907	 0.844044	 0.687500 
Pt592	 0.700657	 0.898171	 0.625000 
Pt593	 0.646530	 0.866921	 0.687500 
Pt594	 0.615280	 0.921047	 0.625000 
Pt595	 0.911033	 0.658788	 0.625000 
Pt596	 0.879783	 0.712914	 0.687500 
Pt597	 0.848533	 0.767041	 0.625000 
Pt598	 0.817283	 0.821168	 0.687500 
Pt599	 0.786033	 0.875294	 0.625000 
Pt600	 0.284391	 0.369164	 0.750000 
Pt601	 0.199014	 0.392041	 0.750000 
Pt602	 0.253141	 0.423291	 0.812500 
Pt603	 0.221891	 0.477418	 0.750000 
Pt604	 0.455144	 0.323411	 0.750000 
Pt605	 0.369767	 0.346288	 0.750000 
Pt606	 0.423894	 0.377538	 0.812500 
Pt607	 0.392644	 0.431664	 0.750000 
Pt608	 0.338517	 0.400414	 0.812500 
Pt609	 0.307267	 0.454541	 0.750000 
Pt610	 0.361394	 0.485791	 0.812500 
Pt611	 0.330144	 0.539918	 0.750000 
Pt612	 0.276017	 0.508668	 0.812500 
Pt613	 0.244767	 0.562794	 0.750000 
Pt614	 0.298894	 0.594044	 0.812500 
Pt615	 0.267644	 0.648171	 0.750000 
Pt616	 0.625897	 0.277658	 0.750000 
Pt617	 0.540521	 0.300535	 0.750000 
Pt618	 0.594647	 0.331785	 0.812500 
Pt619	 0.563397	 0.385911	 0.750000 
Pt620	 0.509271	 0.354661	 0.812500 
Pt621	 0.478021	 0.408788	 0.750000 
Pt622	 0.532147	 0.440038	 0.812500 
Pt623	 0.500897	 0.494164	 0.750000 
Pt624	 0.446771	 0.462914	 0.812500 
Pt625	 0.415521	 0.517041	 0.750000 
Pt626	 0.469647	 0.548291	 0.812500 
Pt627	 0.438397	 0.602418	 0.750000 
Pt628	 0.384271	 0.571168	 0.812500 
Pt629	 0.353021	 0.625294	 0.750000 
Pt630	 0.407147	 0.656544	 0.812500 
Pt631	 0.375897	 0.710671	 0.750000 
Pt632	 0.321771	 0.679421	 0.812500 
Pt633	 0.290521	 0.733547	 0.750000 
Pt634	 0.344647	 0.764797	 0.812500 
Pt635	 0.313397	 0.818924	 0.750000 
Pt636	 0.711274	 0.254782	 0.750000 
Pt637	 0.734150	 0.340158	 0.750000 
Pt638	 0.680024	 0.308908	 0.812500 
Pt639	 0.648774	 0.363035	 0.750000 
Pt640	 0.702900	 0.394285	 0.812500 
Pt641	 0.671650	 0.448411	 0.750000 
Pt642	 0.617524	 0.417161	 0.812500 
Pt643	 0.586274	 0.471288	 0.750000 
Pt644	 0.640400	 0.502538	 0.812500 
Pt645	 0.609150	 0.556664	 0.750000 
Pt646	 0.555024	 0.525414	 0.812500 
Pt647	 0.523774	 0.579541	 0.750000 
Pt648	 0.577900	 0.610791	 0.812500 
Pt649	 0.546650	 0.664918	 0.750000 
Pt650	 0.492524	 0.633668	 0.812500 
Pt651	 0.461274	 0.687794	 0.750000 
Pt652	 0.515400	 0.719044	 0.812500 
Pt653	 0.484150	 0.773171	 0.750000 
Pt654	 0.430024	 0.741921	 0.812500 
Pt655	 0.398774	 0.796047	 0.750000 
Pt656	 0.452900	 0.827297	 0.812500 
Pt657	 0.421650	 0.881424	 0.750000 
Pt658	 0.367524	 0.850174	 0.812500 
Pt659	 0.336274	 0.904301	 0.750000 
Pt660	 0.757027	 0.425535	 0.750000 
Pt661	 0.779903	 0.510911	 0.750000 
Pt662	 0.725777	 0.479661	 0.812500 
Pt663	 0.694527	 0.533788	 0.750000 
Pt664	 0.748653	 0.565038	 0.812500 
Pt665	 0.717403	 0.619164	 0.750000 
Pt666	 0.663277	 0.587914	 0.812500 
Pt667	 0.632027	 0.642041	 0.750000 
Pt668	 0.686153	 0.673291	 0.812500 
Pt669	 0.654903	 0.727418	 0.750000 
Pt670	 0.600777	 0.696168	 0.812500 
Pt671	 0.569527	 0.750294	 0.750000 
Pt672	 0.623653	 0.781544	 0.812500 
Pt673	 0.592403	 0.835671	 0.750000 
Pt674	 0.538277	 0.804421	 0.812500 
Pt675	 0.507027	 0.858547	 0.750000 
Pt676	 0.802780	 0.596288	 0.750000 
Pt677	 0.825657	 0.681664	 0.750000 
Pt678	 0.771530	 0.650414	 0.812500 
Pt679	 0.740280	 0.704541	 0.750000 
Pt680	 0.794407	 0.735791	 0.812500 
Pt681	 0.763157	 0.789918	 0.750000 
Pt682	 0.709030	 0.758668	 0.812500 
Pt683	 0.677780	 0.812794	 0.750000 
Pt684	 0.848533	 0.767041	 0.750000 
Pt685	 0.392644	 0.431664	 0.875000 
Pt686	 0.307267	 0.454541	 0.875000 
Pt687	 0.330144	 0.539918	 0.875000 
Pt688	 0.563397	 0.385911	 0.875000 
Pt689	 0.478021	 0.408788	 0.875000 
Pt690	 0.500897	 0.494164	 0.875000 
Pt691	 0.415521	 0.517041	 0.875000 
Pt692	 0.438397	 0.602418	 0.875000 
Pt693	 0.353021	 0.625294	 0.875000 
Pt694	 0.375897	 0.710671	 0.875000 
Pt695	 0.648774	 0.363035	 0.875000 
Pt696	 0.671650	 0.448411	 0.875000 
Pt697	 0.586274	 0.471288	 0.875000 
Pt698	 0.609150	 0.556664	 0.875000 
Pt699	 0.523774	 0.579541	 0.875000 
Pt700	 0.546650	 0.664918	 0.875000 
Pt701	 0.461274	 0.687794	 0.875000 
Pt702	 0.484150	 0.773171	 0.875000 
Pt703	 0.398774	 0.796047	 0.875000 
Pt704	 0.694527	 0.533788	 0.875000 
Pt705	 0.717403	 0.619164	 0.875000 
Pt706	 0.632027	 0.642041	 0.875000 
Pt707	 0.654903	 0.727418	 0.875000 
Pt708	 0.569527	 0.750294	 0.875000 
Pt709	 0.740280	 0.704541	 0.875000 
#                 ---end-of-data-block---
