data_C:\Users\admin\Documents\atomsegmentation_bupt_fullsuite_3\misc\13060.cif
_cell_length_a               31.652800
_cell_length_b               31.652800
_cell_length_c               5.449400
_cell_angle_alpha          90.000000
_cell_angle_beta           90.000000
_cell_angle_gamma          90.000000
_symmetry_cell_setting          Triclinic
_symmetry_space_group_name_H-M 'P 1' 
loop_
_atom_site_label
_atom_site_fract_x
_atom_site_fract_y
_atom_site_fract_z
Sc1	 0.325117	 0.020285	 0.000000 
Sc2	 0.279890	 0.098621	 0.500000 
Sc3	 0.433371	 0.082785	 0.000000 
Sc4	 0.388143	 0.161121	 0.500000 
Dy5	 0.492988	 0.104525	 0.517200 
Dy6	 0.447760	 0.182861	 0.982800 
Dy7	 0.373753	 0.061045	 0.482800 
Sc8	 0.234663	 0.176957	 0.000000 
Sc9	 0.189435	 0.255293	 0.500000 
Sc10	 0.342916	 0.239457	 0.000000 
Sc11	 0.297688	 0.317793	 0.500000 
Dy12	 0.328526	 0.139381	 0.017200 
Dy13	 0.402533	 0.261197	 0.517200 
Dy14	 0.357306	 0.339533	 0.982800 
Dy15	 0.283299	 0.217717	 0.482800 
Sc16	 0.144208	 0.333630	 0.000000 
Sc17	 0.098980	 0.411966	 0.500000 
Sc18	 0.252461	 0.396130	 0.000000 
Sc19	 0.207233	 0.474466	 0.500000 
Dy20	 0.238071	 0.296053	 0.017200 
Dy21	 0.312078	 0.417870	 0.517200 
Dy22	 0.266851	 0.496206	 0.982800 
Dy23	 0.192844	 0.374390	 0.482800 
Sc24	 0.053753	 0.490302	 0.000000 
Sc25	 0.008525	 0.568638	 0.500000 
Sc26	 0.162006	 0.552802	 0.000000 
Sc27	 0.116779	 0.631138	 0.500000 
Dy28	 0.147616	 0.452726	 0.017200 
Dy29	 0.221623	 0.574542	 0.517200 
Dy30	 0.176396	 0.652878	 0.982800 
Dy31	 0.102389	 0.531062	 0.482800 
Sc32	 0.071551	 0.709474	 0.000000 
Sc33	 0.478598	 0.004449	 0.500000 
Dy34	 0.057161	 0.609398	 0.017200 
Dy35	 0.131168	 0.731214	 0.517200 
Dy36	 0.538215	 0.026189	 0.982800 
Dy37	 0.011934	 0.687735	 0.482800 
Sc38	 0.541624	 0.145285	 0.000000 
Sc39	 0.496396	 0.223621	 0.500000 
Sc40	 0.649877	 0.207785	 0.000000 
Sc41	 0.604650	 0.286121	 0.500000 
Dy42	 0.635487	 0.107709	 0.017200 
Dy43	 0.709494	 0.229525	 0.517200 
Dy44	 0.664267	 0.307861	 0.982800 
Dy45	 0.590260	 0.186045	 0.482800 
Sc46	 0.451169	 0.301957	 0.000000 
Sc47	 0.405942	 0.380293	 0.500000 
Sc48	 0.559422	 0.364457	 0.000000 
Sc49	 0.514195	 0.442793	 0.500000 
Dy50	 0.545032	 0.264381	 0.017200 
Dy51	 0.619039	 0.386197	 0.517200 
Dy52	 0.573812	 0.464533	 0.982800 
Dy53	 0.499805	 0.342717	 0.482800 
Sc54	 0.360714	 0.458630	 0.000000 
Sc55	 0.315487	 0.536966	 0.500000 
Sc56	 0.468967	 0.521130	 0.000000 
Sc57	 0.423740	 0.599466	 0.500000 
Dy58	 0.454577	 0.421053	 0.017200 
Dy59	 0.528584	 0.542870	 0.517200 
Dy60	 0.483357	 0.621206	 0.982800 
Dy61	 0.409350	 0.499390	 0.482800 
Sc62	 0.270259	 0.615302	 0.000000 
Sc63	 0.225032	 0.693638	 0.500000 
Sc64	 0.378512	 0.677802	 0.000000 
Sc65	 0.333285	 0.756138	 0.500000 
Dy66	 0.364123	 0.577726	 0.017200 
Dy67	 0.438130	 0.699542	 0.517200 
Dy68	 0.392902	 0.777878	 0.982800 
Dy69	 0.318895	 0.656062	 0.482800 
Sc70	 0.179804	 0.771974	 0.000000 
Sc71	 0.586851	 0.066949	 0.500000 
Sc72	 0.288058	 0.834474	 0.000000 
Sc73	 0.695104	 0.129449	 0.500000 
Dy74	 0.273668	 0.734398	 0.017200 
Dy75	 0.347675	 0.856214	 0.517200 
Dy76	 0.754722	 0.151189	 0.982800 
Dy77	 0.228440	 0.812735	 0.482800 
Sc78	 0.758130	 0.270285	 0.000000 
Sc79	 0.712903	 0.348621	 0.500000 
Sc80	 0.866383	 0.332785	 0.000000 
Sc81	 0.821156	 0.411121	 0.500000 
Dy82	 0.851994	 0.232709	 0.017200 
Dy83	 0.926001	 0.354525	 0.517200 
Dy84	 0.880773	 0.432861	 0.982800 
Dy85	 0.806766	 0.311045	 0.482800 
Sc86	 0.667675	 0.426957	 0.000000 
Sc87	 0.622448	 0.505293	 0.500000 
Sc88	 0.775928	 0.489457	 0.000000 
Sc89	 0.730701	 0.567793	 0.500000 
Dy90	 0.761539	 0.389381	 0.017200 
Dy91	 0.835546	 0.511197	 0.517200 
Dy92	 0.790318	 0.589533	 0.982800 
Dy93	 0.716311	 0.467717	 0.482800 
Sc94	 0.577220	 0.583630	 0.000000 
Sc95	 0.531993	 0.661966	 0.500000 
Sc96	 0.685474	 0.646130	 0.000000 
Sc97	 0.640246	 0.724466	 0.500000 
Dy98	 0.671084	 0.546053	 0.017200 
Dy99	 0.745091	 0.667870	 0.517200 
Dy100	 0.699863	 0.746206	 0.982800 
Dy101	 0.625856	 0.624390	 0.482800 
Sc102	 0.486766	 0.740302	 0.000000 
Sc103	 0.441538	 0.818638	 0.500000 
Sc104	 0.595019	 0.802802	 0.000000 
Sc105	 0.549791	 0.881138	 0.500000 
Dy106	 0.580629	 0.702726	 0.017200 
Dy107	 0.654636	 0.824542	 0.517200 
Dy108	 0.609408	 0.902878	 0.982800 
Dy109	 0.535402	 0.781062	 0.482800 
Sc110	 0.396311	 0.896974	 0.000000 
Sc111	 0.803358	 0.191949	 0.500000 
Sc112	 0.504564	 0.959474	 0.000000 
Sc113	 0.911611	 0.254449	 0.500000 
Dy114	 0.490174	 0.859398	 0.017200 
Dy115	 0.564181	 0.981214	 0.517200 
Dy116	 0.971228	 0.276189	 0.982800 
Dy117	 0.444947	 0.937735	 0.482800 
Sc118	 0.974637	 0.395285	 0.000000 
Sc119	 0.929409	 0.473621	 0.500000 
Dy120	 0.231254	 0.057861	 0.982800 
Sc121	 0.884182	 0.551957	 0.000000 
Sc122	 0.838954	 0.630293	 0.500000 
Sc123	 0.992435	 0.614457	 0.000000 
Sc124	 0.947207	 0.692793	 0.500000 
Dy125	 0.978045	 0.514381	 0.017200 
Dy126	 0.186027	 0.136197	 0.517200 
Dy127	 0.140799	 0.214533	 0.982800 
Dy128	 0.932818	 0.592717	 0.482800 
Sc129	 0.793727	 0.708630	 0.000000 
Sc130	 0.748499	 0.786966	 0.500000 
Sc131	 0.901980	 0.771130	 0.000000 
Sc132	 0.856753	 0.849466	 0.500000 
Dy133	 0.887590	 0.671053	 0.017200 
Dy134	 0.095572	 0.292870	 0.517200 
Dy135	 0.050344	 0.371206	 0.982800 
Dy136	 0.842363	 0.749390	 0.482800 
Sc137	 0.703272	 0.865302	 0.000000 
Sc138	 0.658044	 0.943638	 0.500000 
Sc139	 0.811525	 0.927802	 0.000000 
Dy140	 0.797135	 0.827726	 0.017200 
Dy141	 0.005117	 0.449542	 0.517200 
Dy142	 0.751908	 0.906062	 0.482800 
Dy143	 0.706680	 0.984398	 0.017200 
#                 ---end-of-data-block---
