data_C:\Users\admin\Documents\atomsegmentation_bupt_fullsuite_3\misc\13067.cif
_cell_length_a               31.652800
_cell_length_b               31.652800
_cell_length_c               5.449400
_cell_angle_alpha          90.000000
_cell_angle_beta           90.000000
_cell_angle_gamma          90.000000
_symmetry_cell_setting          Triclinic
_symmetry_space_group_name_H-M 'P 1' 
loop_
_atom_site_label
_atom_site_fract_x
_atom_site_fract_y
_atom_site_fract_z
Sc1	 0.187827	 0.044991	 0.000000 
Sc2	 0.142599	 0.123327	 0.500000 
Sc3	 0.296080	 0.107491	 0.000000 
Sc4	 0.250853	 0.185827	 0.500000 
Dy5	 0.281690	 0.007415	 0.017200 
Dy6	 0.355697	 0.129231	 0.517200 
Dy7	 0.310470	 0.207567	 0.982800 
Dy8	 0.236463	 0.085751	 0.482800 
Sc9	 0.097372	 0.201663	 0.000000 
Sc10	 0.052145	 0.279999	 0.500000 
Sc11	 0.205625	 0.264163	 0.000000 
Sc12	 0.160398	 0.342499	 0.500000 
Dy13	 0.191235	 0.164087	 0.017200 
Dy14	 0.265242	 0.285903	 0.517200 
Dy15	 0.220015	 0.364239	 0.982800 
Dy16	 0.146008	 0.242423	 0.482800 
Sc17	 0.006917	 0.358336	 0.000000 
Sc18	 0.115170	 0.420836	 0.000000 
Sc19	 0.069943	 0.499172	 0.500000 
Dy20	 0.100781	 0.320759	 0.017200 
Dy21	 0.174788	 0.442576	 0.517200 
Dy22	 0.129560	 0.520912	 0.982800 
Dy23	 0.055553	 0.399096	 0.482800 
Sc24	 0.024715	 0.577508	 0.000000 
Dy25	 0.010326	 0.477432	 0.017200 
Dy26	 0.084333	 0.599248	 0.517200 
Dy27	 0.039105	 0.677584	 0.982800 
Sc28	 0.341308	 0.029155	 0.500000 
Dy29	 0.400925	 0.050895	 0.982800 
Sc30	 0.404333	 0.169991	 0.000000 
Sc31	 0.359106	 0.248327	 0.500000 
Sc32	 0.512586	 0.232491	 0.000000 
Sc33	 0.467359	 0.310827	 0.500000 
Dy34	 0.498197	 0.132415	 0.017200 
Dy35	 0.572204	 0.254231	 0.517200 
Dy36	 0.526976	 0.332567	 0.982800 
Dy37	 0.452969	 0.210751	 0.482800 
Sc38	 0.313878	 0.326663	 0.000000 
Sc39	 0.268651	 0.404999	 0.500000 
Sc40	 0.422132	 0.389163	 0.000000 
Sc41	 0.376904	 0.467499	 0.500000 
Dy42	 0.407742	 0.289087	 0.017200 
Dy43	 0.481749	 0.410903	 0.517200 
Dy44	 0.436521	 0.489239	 0.982800 
Dy45	 0.362514	 0.367423	 0.482800 
Sc46	 0.223424	 0.483336	 0.000000 
Sc47	 0.178196	 0.561672	 0.500000 
Sc48	 0.331677	 0.545836	 0.000000 
Sc49	 0.286449	 0.624172	 0.500000 
Dy50	 0.317287	 0.445759	 0.017200 
Dy51	 0.391294	 0.567576	 0.517200 
Dy52	 0.346066	 0.645912	 0.982800 
Dy53	 0.272059	 0.524096	 0.482800 
Sc54	 0.132969	 0.640008	 0.000000 
Sc55	 0.087741	 0.718344	 0.500000 
Sc56	 0.241222	 0.702508	 0.000000 
Sc57	 0.195994	 0.780844	 0.500000 
Dy58	 0.226832	 0.602432	 0.017200 
Dy59	 0.300839	 0.724248	 0.517200 
Dy60	 0.255612	 0.802584	 0.982800 
Dy61	 0.181605	 0.680768	 0.482800 
Sc62	 0.494788	 0.013318	 0.000000 
Sc63	 0.449561	 0.091655	 0.500000 
Sc64	 0.603041	 0.075818	 0.000000 
Sc65	 0.557814	 0.154155	 0.500000 
Dy66	 0.136377	 0.759104	 0.017200 
Dy67	 0.662658	 0.097558	 0.517200 
Dy68	 0.617431	 0.175895	 0.982800 
Dy69	 0.543424	 0.054078	 0.482800 
Sc70	 0.620840	 0.294991	 0.000000 
Sc71	 0.575612	 0.373327	 0.500000 
Sc72	 0.729093	 0.357491	 0.000000 
Sc73	 0.683865	 0.435827	 0.500000 
Dy74	 0.714703	 0.257415	 0.017200 
Dy75	 0.788710	 0.379231	 0.517200 
Dy76	 0.743483	 0.457567	 0.982800 
Dy77	 0.669476	 0.335751	 0.482800 
Sc78	 0.530385	 0.451663	 0.000000 
Sc79	 0.485157	 0.529999	 0.500000 
Sc80	 0.638638	 0.514163	 0.000000 
Sc81	 0.593410	 0.592499	 0.500000 
Dy82	 0.624248	 0.414087	 0.017200 
Dy83	 0.698255	 0.535903	 0.517200 
Dy84	 0.653028	 0.614239	 0.982800 
Dy85	 0.579021	 0.492423	 0.482800 
Sc86	 0.439930	 0.608336	 0.000000 
Sc87	 0.394702	 0.686672	 0.500000 
Sc88	 0.548183	 0.670836	 0.000000 
Sc89	 0.502956	 0.749172	 0.500000 
Dy90	 0.533793	 0.570759	 0.017200 
Dy91	 0.607800	 0.692576	 0.517200 
Dy92	 0.562573	 0.770912	 0.982800 
Dy93	 0.488566	 0.649096	 0.482800 
Sc94	 0.349475	 0.765008	 0.000000 
Sc95	 0.304248	 0.843344	 0.500000 
Sc96	 0.457728	 0.827508	 0.000000 
Sc97	 0.412501	 0.905844	 0.500000 
Dy98	 0.443338	 0.727432	 0.017200 
Dy99	 0.517345	 0.849248	 0.517200 
Dy100	 0.472118	 0.927584	 0.982800 
Dy101	 0.398111	 0.805768	 0.482800 
Sc102	 0.711294	 0.138318	 0.000000 
Sc103	 0.666067	 0.216655	 0.500000 
Sc104	 0.819548	 0.200818	 0.000000 
Sc105	 0.774320	 0.279155	 0.500000 
Dy106	 0.352884	 0.884104	 0.017200 
Dy107	 0.879165	 0.222558	 0.517200 
Dy108	 0.833937	 0.300895	 0.982800 
Dy109	 0.759930	 0.179078	 0.482800 
Sc110	 0.837346	 0.419991	 0.000000 
Sc111	 0.792119	 0.498327	 0.500000 
Sc112	 0.945599	 0.482491	 0.000000 
Sc113	 0.900372	 0.560827	 0.500000 
Dy114	 0.931209	 0.382415	 0.017200 
Dy115	 0.959989	 0.582567	 0.982800 
Dy116	 0.885982	 0.460751	 0.482800 
Sc117	 0.746891	 0.576663	 0.000000 
Sc118	 0.701664	 0.654999	 0.500000 
Sc119	 0.855144	 0.639163	 0.000000 
Sc120	 0.809917	 0.717499	 0.500000 
Dy121	 0.840754	 0.539087	 0.017200 
Dy122	 0.914761	 0.660903	 0.517200 
Dy123	 0.869534	 0.739239	 0.982800 
Dy124	 0.795527	 0.617423	 0.482800 
Sc125	 0.656436	 0.733336	 0.000000 
Sc126	 0.611209	 0.811672	 0.500000 
Sc127	 0.764689	 0.795836	 0.000000 
Sc128	 0.719462	 0.874172	 0.500000 
Dy129	 0.750300	 0.695759	 0.017200 
Dy130	 0.824307	 0.817576	 0.517200 
Dy131	 0.779079	 0.895912	 0.982800 
Dy132	 0.705072	 0.774096	 0.482800 
Sc133	 0.565981	 0.890008	 0.000000 
Sc134	 0.520754	 0.968344	 0.500000 
Sc135	 0.674235	 0.952508	 0.000000 
Dy136	 0.659845	 0.852432	 0.017200 
Dy137	 0.733852	 0.974248	 0.517200 
Dy138	 0.614617	 0.930768	 0.482800 
Sc139	 0.927801	 0.263318	 0.000000 
Sc140	 0.882573	 0.341655	 0.500000 
Sc141	 0.990827	 0.404155	 0.500000 
Dy142	 0.976437	 0.304078	 0.482800 
#                 ---end-of-data-block---
