data_C:\Users\admin\Documents\atomsegmentation_bupt_fullsuite_3\misc\13068.cif
_cell_length_a               31.652800
_cell_length_b               31.652800
_cell_length_c               5.449400
_cell_angle_alpha          90.000000
_cell_angle_beta           90.000000
_cell_angle_gamma          90.000000
_symmetry_cell_setting          Triclinic
_symmetry_space_group_name_H-M 'P 1' 
loop_
_atom_site_label
_atom_site_fract_x
_atom_site_fract_y
_atom_site_fract_z
Sc1	 0.316882	 0.004663	 0.000000 
Sc2	 0.271655	 0.082999	 0.500000 
Sc3	 0.425135	 0.067163	 0.000000 
Sc4	 0.379908	 0.145499	 0.500000 
Dy5	 0.484753	 0.088903	 0.517200 
Dy6	 0.439525	 0.167239	 0.982800 
Dy7	 0.365518	 0.045423	 0.482800 
Sc8	 0.226427	 0.161336	 0.000000 
Sc9	 0.181200	 0.239672	 0.500000 
Sc10	 0.334681	 0.223836	 0.000000 
Sc11	 0.289453	 0.302172	 0.500000 
Dy12	 0.320291	 0.123759	 0.017200 
Dy13	 0.394298	 0.245576	 0.517200 
Dy14	 0.349070	 0.323912	 0.982800 
Dy15	 0.275063	 0.202096	 0.482800 
Sc16	 0.135973	 0.318008	 0.000000 
Sc17	 0.090745	 0.396344	 0.500000 
Sc18	 0.244226	 0.380508	 0.000000 
Sc19	 0.198998	 0.458844	 0.500000 
Dy20	 0.229836	 0.280432	 0.017200 
Dy21	 0.303843	 0.402248	 0.517200 
Dy22	 0.258615	 0.480584	 0.982800 
Dy23	 0.184609	 0.358768	 0.482800 
Sc24	 0.045518	 0.474680	 0.000000 
Sc25	 0.000290	 0.553017	 0.500000 
Sc26	 0.153771	 0.537180	 0.000000 
Sc27	 0.108543	 0.615517	 0.500000 
Dy28	 0.139381	 0.437104	 0.017200 
Dy29	 0.213388	 0.558920	 0.517200 
Dy30	 0.168161	 0.637257	 0.982800 
Dy31	 0.094154	 0.515440	 0.482800 
Sc32	 0.063316	 0.693853	 0.000000 
Dy33	 0.048926	 0.593777	 0.017200 
Dy34	 0.122933	 0.715593	 0.517200 
Dy35	 0.529980	 0.010567	 0.982800 
Dy36	 0.003699	 0.672113	 0.482800 
Sc37	 0.533389	 0.129663	 0.000000 
Sc38	 0.488161	 0.207999	 0.500000 
Sc39	 0.641642	 0.192163	 0.000000 
Sc40	 0.596414	 0.270499	 0.500000 
Dy41	 0.627252	 0.092087	 0.017200 
Dy42	 0.701259	 0.213903	 0.517200 
Dy43	 0.656032	 0.292239	 0.982800 
Dy44	 0.582025	 0.170423	 0.482800 
Sc45	 0.442934	 0.286336	 0.000000 
Sc46	 0.397706	 0.364672	 0.500000 
Sc47	 0.551187	 0.348836	 0.000000 
Sc48	 0.505960	 0.427172	 0.500000 
Dy49	 0.536797	 0.248759	 0.017200 
Dy50	 0.610804	 0.370576	 0.517200 
Dy51	 0.565577	 0.448912	 0.982800 
Dy52	 0.491570	 0.327096	 0.482800 
Sc53	 0.352479	 0.443008	 0.000000 
Sc54	 0.307251	 0.521344	 0.500000 
Sc55	 0.460732	 0.505508	 0.000000 
Sc56	 0.415505	 0.583844	 0.500000 
Dy57	 0.446342	 0.405432	 0.017200 
Dy58	 0.520349	 0.527248	 0.517200 
Dy59	 0.475122	 0.605584	 0.982800 
Dy60	 0.401115	 0.483768	 0.482800 
Sc61	 0.262024	 0.599680	 0.000000 
Sc62	 0.216797	 0.678017	 0.500000 
Sc63	 0.370277	 0.662180	 0.000000 
Sc64	 0.325050	 0.740517	 0.500000 
Dy65	 0.355887	 0.562104	 0.017200 
Dy66	 0.429894	 0.683920	 0.517200 
Dy67	 0.384667	 0.762257	 0.982800 
Dy68	 0.310660	 0.640440	 0.482800 
Sc69	 0.171569	 0.756353	 0.000000 
Sc70	 0.578616	 0.051327	 0.500000 
Sc71	 0.279822	 0.818853	 0.000000 
Sc72	 0.686869	 0.113827	 0.500000 
Dy73	 0.265433	 0.718777	 0.017200 
Dy74	 0.339440	 0.840593	 0.517200 
Dy75	 0.746486	 0.135567	 0.982800 
Dy76	 0.220205	 0.797113	 0.482800 
Sc77	 0.749895	 0.254663	 0.000000 
Sc78	 0.704668	 0.332999	 0.500000 
Sc79	 0.858148	 0.317163	 0.000000 
Sc80	 0.812921	 0.395499	 0.500000 
Dy81	 0.843758	 0.217087	 0.017200 
Dy82	 0.917765	 0.338903	 0.517200 
Dy83	 0.872538	 0.417239	 0.982800 
Dy84	 0.798531	 0.295423	 0.482800 
Sc85	 0.659440	 0.411336	 0.000000 
Sc86	 0.614213	 0.489672	 0.500000 
Sc87	 0.767693	 0.473836	 0.000000 
Sc88	 0.722466	 0.552172	 0.500000 
Dy89	 0.753304	 0.373759	 0.017200 
Dy90	 0.827311	 0.495576	 0.517200 
Dy91	 0.782083	 0.573912	 0.982800 
Dy92	 0.708076	 0.452096	 0.482800 
Sc93	 0.568985	 0.568008	 0.000000 
Sc94	 0.523758	 0.646344	 0.500000 
Sc95	 0.677238	 0.630508	 0.000000 
Sc96	 0.632011	 0.708844	 0.500000 
Dy97	 0.662849	 0.530432	 0.017200 
Dy98	 0.736856	 0.652248	 0.517200 
Dy99	 0.691628	 0.730584	 0.982800 
Dy100	 0.617621	 0.608768	 0.482800 
Sc101	 0.478530	 0.724680	 0.000000 
Sc102	 0.433303	 0.803017	 0.500000 
Sc103	 0.586784	 0.787180	 0.000000 
Sc104	 0.541556	 0.865517	 0.500000 
Dy105	 0.572394	 0.687104	 0.017200 
Dy106	 0.646401	 0.808920	 0.517200 
Dy107	 0.601173	 0.887257	 0.982800 
Dy108	 0.527166	 0.765440	 0.482800 
Sc109	 0.388076	 0.881353	 0.000000 
Sc110	 0.795122	 0.176327	 0.500000 
Sc111	 0.496329	 0.943853	 0.000000 
Sc112	 0.903376	 0.238827	 0.500000 
Dy113	 0.481939	 0.843777	 0.017200 
Dy114	 0.555946	 0.965593	 0.517200 
Dy115	 0.962993	 0.260567	 0.982800 
Dy116	 0.436711	 0.922113	 0.482800 
Sc117	 0.966401	 0.379663	 0.000000 
Sc118	 0.921174	 0.457999	 0.500000 
Dy119	 0.223019	 0.042239	 0.982800 
Sc120	 0.875946	 0.536336	 0.000000 
Sc121	 0.830719	 0.614672	 0.500000 
Sc122	 0.984200	 0.598836	 0.000000 
Sc123	 0.938972	 0.677172	 0.500000 
Dy124	 0.969810	 0.498759	 0.017200 
Dy125	 0.177791	 0.120576	 0.517200 
Dy126	 0.132564	 0.198912	 0.982800 
Dy127	 0.924582	 0.577096	 0.482800 
Sc128	 0.785492	 0.693008	 0.000000 
Sc129	 0.740264	 0.771344	 0.500000 
Sc130	 0.893745	 0.755508	 0.000000 
Sc131	 0.848517	 0.833844	 0.500000 
Dy132	 0.879355	 0.655432	 0.017200 
Dy133	 0.087337	 0.277248	 0.517200 
Dy134	 0.042109	 0.355584	 0.982800 
Dy135	 0.834128	 0.733768	 0.482800 
Sc136	 0.695037	 0.849680	 0.000000 
Sc137	 0.649809	 0.928017	 0.500000 
Sc138	 0.803290	 0.912180	 0.000000 
Sc139	 0.758062	 0.990517	 0.500000 
Dy140	 0.788900	 0.812104	 0.017200 
Dy141	 0.743673	 0.890440	 0.482800 
Dy142	 0.698445	 0.968777	 0.017200 
#                 ---end-of-data-block---
