data_C:\Users\admin\Documents\atomsegmentation_bupt_fullsuite_3\misc\13066.cif
_cell_length_a               31.652800
_cell_length_b               31.652800
_cell_length_c               5.449400
_cell_angle_alpha          90.000000
_cell_angle_beta           90.000000
_cell_angle_gamma          90.000000
_symmetry_cell_setting          Triclinic
_symmetry_space_group_name_H-M 'P 1' 
loop_
_atom_site_label
_atom_site_fract_x
_atom_site_fract_y
_atom_site_fract_z
Sc1	 0.195969	 0.094136	 0.000000 
Sc2	 0.150741	 0.172472	 0.500000 
Sc3	 0.304222	 0.156636	 0.000000 
Sc4	 0.258995	 0.234972	 0.500000 
Dy5	 0.289832	 0.056559	 0.017200 
Dy6	 0.363839	 0.178376	 0.517200 
Dy7	 0.318612	 0.256712	 0.982800 
Dy8	 0.244605	 0.134896	 0.482800 
Sc9	 0.105514	 0.250808	 0.000000 
Sc10	 0.060287	 0.329144	 0.500000 
Sc11	 0.213767	 0.313308	 0.000000 
Sc12	 0.168540	 0.391644	 0.500000 
Dy13	 0.199377	 0.213232	 0.017200 
Dy14	 0.273384	 0.335048	 0.517200 
Dy15	 0.228157	 0.413384	 0.982800 
Dy16	 0.154150	 0.291568	 0.482800 
Sc17	 0.015059	 0.407480	 0.000000 
Sc18	 0.123312	 0.469980	 0.000000 
Sc19	 0.078085	 0.548317	 0.500000 
Dy20	 0.108923	 0.369904	 0.017200 
Dy21	 0.182929	 0.491720	 0.517200 
Dy22	 0.137702	 0.570057	 0.982800 
Dy23	 0.063695	 0.448240	 0.482800 
Sc24	 0.032857	 0.626653	 0.000000 
Dy25	 0.018468	 0.526577	 0.017200 
Dy26	 0.092475	 0.648393	 0.517200 
Dy27	 0.047247	 0.726729	 0.982800 
Sc28	 0.241196	 0.015799	 0.500000 
Sc29	 0.349449	 0.078299	 0.500000 
Dy30	 0.454294	 0.021703	 0.517200 
Dy31	 0.409067	 0.100039	 0.982800 
Sc32	 0.412475	 0.219136	 0.000000 
Sc33	 0.367248	 0.297472	 0.500000 
Sc34	 0.520728	 0.281636	 0.000000 
Sc35	 0.475501	 0.359972	 0.500000 
Dy36	 0.506339	 0.181559	 0.017200 
Dy37	 0.580346	 0.303376	 0.517200 
Dy38	 0.535118	 0.381712	 0.982800 
Dy39	 0.461111	 0.259896	 0.482800 
Sc40	 0.322020	 0.375808	 0.000000 
Sc41	 0.276793	 0.454144	 0.500000 
Sc42	 0.430273	 0.438308	 0.000000 
Sc43	 0.385046	 0.516644	 0.500000 
Dy44	 0.415884	 0.338232	 0.017200 
Dy45	 0.489891	 0.460048	 0.517200 
Dy46	 0.444663	 0.538384	 0.982800 
Dy47	 0.370656	 0.416568	 0.482800 
Sc48	 0.231565	 0.532480	 0.000000 
Sc49	 0.186338	 0.610817	 0.500000 
Sc50	 0.339819	 0.594980	 0.000000 
Sc51	 0.294591	 0.673317	 0.500000 
Dy52	 0.325429	 0.494904	 0.017200 
Dy53	 0.399436	 0.616720	 0.517200 
Dy54	 0.354208	 0.695057	 0.982800 
Dy55	 0.280201	 0.573240	 0.482800 
Sc56	 0.141111	 0.689153	 0.000000 
Sc57	 0.095883	 0.767489	 0.500000 
Sc58	 0.249364	 0.751653	 0.000000 
Sc59	 0.204136	 0.829989	 0.500000 
Dy60	 0.234974	 0.651577	 0.017200 
Dy61	 0.308981	 0.773393	 0.517200 
Dy62	 0.263754	 0.851729	 0.982800 
Dy63	 0.189747	 0.729913	 0.482800 
Sc64	 0.502930	 0.062463	 0.000000 
Sc65	 0.457703	 0.140799	 0.500000 
Sc66	 0.611183	 0.124963	 0.000000 
Sc67	 0.565956	 0.203299	 0.500000 
Dy68	 0.144519	 0.808249	 0.017200 
Dy69	 0.670800	 0.146703	 0.517200 
Dy70	 0.625573	 0.225039	 0.982800 
Dy71	 0.551566	 0.103223	 0.482800 
Sc72	 0.628982	 0.344136	 0.000000 
Sc73	 0.583754	 0.422472	 0.500000 
Sc74	 0.737235	 0.406636	 0.000000 
Sc75	 0.692007	 0.484972	 0.500000 
Dy76	 0.722845	 0.306559	 0.017200 
Dy77	 0.796852	 0.428376	 0.517200 
Dy78	 0.751624	 0.506712	 0.982800 
Dy79	 0.677618	 0.384896	 0.482800 
Sc80	 0.538527	 0.500808	 0.000000 
Sc81	 0.493299	 0.579144	 0.500000 
Sc82	 0.646780	 0.563308	 0.000000 
Sc83	 0.601552	 0.641644	 0.500000 
Dy84	 0.632390	 0.463232	 0.017200 
Dy85	 0.706397	 0.585048	 0.517200 
Dy86	 0.661170	 0.663384	 0.982800 
Dy87	 0.587163	 0.541568	 0.482800 
Sc88	 0.448072	 0.657480	 0.000000 
Sc89	 0.402844	 0.735817	 0.500000 
Sc90	 0.556325	 0.719980	 0.000000 
Sc91	 0.511098	 0.798317	 0.500000 
Dy92	 0.541935	 0.619904	 0.017200 
Dy93	 0.615942	 0.741720	 0.517200 
Dy94	 0.570715	 0.820057	 0.982800 
Dy95	 0.496708	 0.698240	 0.482800 
Sc96	 0.357617	 0.814153	 0.000000 
Sc97	 0.312389	 0.892489	 0.500000 
Sc98	 0.465870	 0.876653	 0.000000 
Sc99	 0.420643	 0.954989	 0.500000 
Dy100	 0.451480	 0.776577	 0.017200 
Dy101	 0.525487	 0.898393	 0.517200 
Dy102	 0.480260	 0.976729	 0.982800 
Dy103	 0.406253	 0.854913	 0.482800 
Sc104	 0.719436	 0.187463	 0.000000 
Sc105	 0.674209	 0.265799	 0.500000 
Sc106	 0.827690	 0.249963	 0.000000 
Sc107	 0.782462	 0.328299	 0.500000 
Dy108	 0.361025	 0.933249	 0.017200 
Dy109	 0.887307	 0.271703	 0.517200 
Dy110	 0.842079	 0.350039	 0.982800 
Dy111	 0.768072	 0.228223	 0.482800 
Sc112	 0.845488	 0.469136	 0.000000 
Sc113	 0.800260	 0.547472	 0.500000 
Sc114	 0.953741	 0.531636	 0.000000 
Sc115	 0.908514	 0.609972	 0.500000 
Dy116	 0.939351	 0.431559	 0.017200 
Dy117	 0.968131	 0.631712	 0.982800 
Dy118	 0.894124	 0.509896	 0.482800 
Sc119	 0.755033	 0.625808	 0.000000 
Sc120	 0.709806	 0.704144	 0.500000 
Sc121	 0.863286	 0.688308	 0.000000 
Sc122	 0.818059	 0.766644	 0.500000 
Dy123	 0.848896	 0.588232	 0.017200 
Dy124	 0.922903	 0.710048	 0.517200 
Dy125	 0.877676	 0.788384	 0.982800 
Dy126	 0.803669	 0.666568	 0.482800 
Sc127	 0.664578	 0.782480	 0.000000 
Sc128	 0.619351	 0.860817	 0.500000 
Sc129	 0.772831	 0.844980	 0.000000 
Sc130	 0.727604	 0.923317	 0.500000 
Dy131	 0.758442	 0.744904	 0.017200 
Dy132	 0.832449	 0.866720	 0.517200 
Dy133	 0.787221	 0.945057	 0.982800 
Dy134	 0.713214	 0.823240	 0.482800 
Sc135	 0.574123	 0.939153	 0.000000 
Dy136	 0.667987	 0.901577	 0.017200 
Dy137	 0.622759	 0.979913	 0.482800 
Sc138	 0.935943	 0.312463	 0.000000 
Sc139	 0.890715	 0.390799	 0.500000 
Sc140	 0.998968	 0.453299	 0.500000 
Dy141	 0.984579	 0.353223	 0.482800 
#                 ---end-of-data-block---
