data_C:\Users\admin\Documents\atomsegmentation_bupt_fullsuite_3\misc\13073.cif
_cell_length_a               31.652800
_cell_length_b               31.652800
_cell_length_c               5.449400
_cell_angle_alpha          90.000000
_cell_angle_beta           90.000000
_cell_angle_gamma          90.000000
_symmetry_cell_setting          Triclinic
_symmetry_space_group_name_H-M 'P 1' 
loop_
_atom_site_label
_atom_site_fract_x
_atom_site_fract_y
_atom_site_fract_z
Sc1	 0.388374	 0.022359	 0.500000 
Sc2	 0.540724	 0.046786	 0.000000 
Sc3	 0.476763	 0.110747	 0.500000 
Dy4	 0.592683	 0.083215	 0.517200 
Dy5	 0.528722	 0.147176	 0.982800 
Dy6	 0.488765	 0.010356	 0.482800 
Sc7	 0.324413	 0.086320	 0.000000 
Sc8	 0.260452	 0.150281	 0.500000 
Sc9	 0.412801	 0.174708	 0.000000 
Sc10	 0.348840	 0.238669	 0.500000 
Dy11	 0.424804	 0.074318	 0.017200 
Dy12	 0.464760	 0.211138	 0.517200 
Dy13	 0.400799	 0.275099	 0.982800 
Dy14	 0.360842	 0.138279	 0.482800 
Sc15	 0.196490	 0.214242	 0.000000 
Sc16	 0.132529	 0.278204	 0.500000 
Sc17	 0.284879	 0.302631	 0.000000 
Sc18	 0.220918	 0.366592	 0.500000 
Dy19	 0.296881	 0.202240	 0.017200 
Dy20	 0.336838	 0.339060	 0.517200 
Dy21	 0.272877	 0.403021	 0.982800 
Dy22	 0.232920	 0.266201	 0.482800 
Sc23	 0.068568	 0.342165	 0.000000 
Sc24	 0.004607	 0.406126	 0.500000 
Sc25	 0.156956	 0.430553	 0.000000 
Sc26	 0.092995	 0.494515	 0.500000 
Dy27	 0.168959	 0.330163	 0.017200 
Dy28	 0.208915	 0.466983	 0.517200 
Dy29	 0.144954	 0.530944	 0.982800 
Dy30	 0.104997	 0.394124	 0.482800 
Sc31	 0.029034	 0.558476	 0.000000 
Dy32	 0.041036	 0.458085	 0.017200 
Dy33	 0.080993	 0.594905	 0.517200 
Dy34	 0.656644	 0.019254	 0.982800 
Sc35	 0.629112	 0.135174	 0.000000 
Sc36	 0.565151	 0.199135	 0.500000 
Sc37	 0.717501	 0.223562	 0.000000 
Sc38	 0.653539	 0.287524	 0.500000 
Dy39	 0.729503	 0.123172	 0.017200 
Dy40	 0.769460	 0.259992	 0.517200 
Dy41	 0.705498	 0.323953	 0.982800 
Dy42	 0.665541	 0.187133	 0.482800 
Sc43	 0.501190	 0.263097	 0.000000 
Sc44	 0.437228	 0.327058	 0.500000 
Sc45	 0.589578	 0.351485	 0.000000 
Sc46	 0.525617	 0.415446	 0.500000 
Dy47	 0.601580	 0.251094	 0.017200 
Dy48	 0.641537	 0.387914	 0.517200 
Dy49	 0.577576	 0.451875	 0.982800 
Dy50	 0.537619	 0.315056	 0.482800 
Sc51	 0.373267	 0.391019	 0.000000 
Sc52	 0.309306	 0.454980	 0.500000 
Sc53	 0.461656	 0.479407	 0.000000 
Sc54	 0.397694	 0.543369	 0.500000 
Dy55	 0.473658	 0.379017	 0.017200 
Dy56	 0.513615	 0.515837	 0.517200 
Dy57	 0.449653	 0.579798	 0.982800 
Dy58	 0.409696	 0.442978	 0.482800 
Sc59	 0.245345	 0.518942	 0.000000 
Sc60	 0.181383	 0.582903	 0.500000 
Sc61	 0.333733	 0.607330	 0.000000 
Sc62	 0.269772	 0.671291	 0.500000 
Dy63	 0.345735	 0.506939	 0.017200 
Dy64	 0.385692	 0.643759	 0.517200 
Dy65	 0.321731	 0.707720	 0.982800 
Dy66	 0.281774	 0.570901	 0.482800 
Sc67	 0.117422	 0.646864	 0.000000 
Sc68	 0.693073	 0.071213	 0.500000 
Sc69	 0.205811	 0.735252	 0.000000 
Sc70	 0.781462	 0.159601	 0.500000 
Dy71	 0.217813	 0.634862	 0.017200 
Dy72	 0.257770	 0.771682	 0.517200 
Dy73	 0.833421	 0.196030	 0.982800 
Dy74	 0.153851	 0.698823	 0.482800 
Sc75	 0.805889	 0.311951	 0.000000 
Sc76	 0.741928	 0.375912	 0.500000 
Sc77	 0.894277	 0.400339	 0.000000 
Sc78	 0.830316	 0.464300	 0.500000 
Dy79	 0.906279	 0.299949	 0.017200 
Dy80	 0.946236	 0.436768	 0.517200 
Dy81	 0.882275	 0.500730	 0.982800 
Dy82	 0.842318	 0.363910	 0.482800 
Sc83	 0.677966	 0.439873	 0.000000 
Sc84	 0.614005	 0.503835	 0.500000 
Sc85	 0.766355	 0.528262	 0.000000 
Sc86	 0.702393	 0.592223	 0.500000 
Dy87	 0.778357	 0.427871	 0.017200 
Dy88	 0.818314	 0.564691	 0.517200 
Dy89	 0.754353	 0.628652	 0.982800 
Dy90	 0.714396	 0.491832	 0.482800 
Sc91	 0.550044	 0.567796	 0.000000 
Sc92	 0.486083	 0.631757	 0.500000 
Sc93	 0.638432	 0.656184	 0.000000 
Sc94	 0.574471	 0.720145	 0.500000 
Dy95	 0.650434	 0.555794	 0.017200 
Dy96	 0.690391	 0.692613	 0.517200 
Dy97	 0.626430	 0.756575	 0.982800 
Dy98	 0.586473	 0.619755	 0.482800 
Sc99	 0.422121	 0.695718	 0.000000 
Sc100	 0.358160	 0.759680	 0.500000 
Sc101	 0.510510	 0.784107	 0.000000 
Sc102	 0.446548	 0.848068	 0.500000 
Dy103	 0.522512	 0.683716	 0.017200 
Dy104	 0.562469	 0.820536	 0.517200 
Dy105	 0.498508	 0.884497	 0.982800 
Dy106	 0.458551	 0.747677	 0.482800 
Sc107	 0.294199	 0.823641	 0.000000 
Sc108	 0.869850	 0.247990	 0.500000 
Sc109	 0.382587	 0.912029	 0.000000 
Sc110	 0.958239	 0.336378	 0.500000 
Dy111	 0.394589	 0.811639	 0.017200 
Dy112	 0.434546	 0.948458	 0.517200 
Dy113	 0.330628	 0.875600	 0.482800 
Sc114	 0.982666	 0.488727	 0.000000 
Sc115	 0.918704	 0.552689	 0.500000 
Sc116	 0.854743	 0.616650	 0.000000 
Sc117	 0.790782	 0.680611	 0.500000 
Sc118	 0.943131	 0.705038	 0.000000 
Sc119	 0.879170	 0.769000	 0.500000 
Dy120	 0.955134	 0.604648	 0.017200 
Dy121	 0.287984	 0.034361	 0.517200 
Dy122	 0.224022	 0.098322	 0.982800 
Dy123	 0.891172	 0.668609	 0.482800 
Sc124	 0.726821	 0.744572	 0.000000 
Sc125	 0.662859	 0.808534	 0.500000 
Sc126	 0.815209	 0.832961	 0.000000 
Sc127	 0.751248	 0.896922	 0.500000 
Dy128	 0.827211	 0.732570	 0.017200 
Dy129	 0.160061	 0.162283	 0.517200 
Dy130	 0.096100	 0.226245	 0.982800 
Dy131	 0.763250	 0.796532	 0.482800 
Sc132	 0.598898	 0.872495	 0.000000 
Sc133	 0.534937	 0.936456	 0.500000 
Sc134	 0.687286	 0.960883	 0.000000 
Dy135	 0.699289	 0.860493	 0.017200 
Dy136	 0.032139	 0.290206	 0.517200 
Dy137	 0.635327	 0.924454	 0.482800 
Dy138	 0.571366	 0.988415	 0.017200 
#                 ---end-of-data-block---
