data_C:\Users\admin\Documents\atomsegmentation_bupt_fullsuite_3\misc\13076.cif
_cell_length_a               31.652800
_cell_length_b               31.652800
_cell_length_c               5.449400
_cell_angle_alpha          90.000000
_cell_angle_beta           90.000000
_cell_angle_gamma          90.000000
_symmetry_cell_setting          Triclinic
_symmetry_space_group_name_H-M 'P 1' 
loop_
_atom_site_label
_atom_site_fract_x
_atom_site_fract_y
_atom_site_fract_z
Sc1	 0.291597	 0.037873	 0.500000 
Sc2	 0.443946	 0.062300	 0.000000 
Sc3	 0.379985	 0.126261	 0.500000 
Dy4	 0.495905	 0.098729	 0.517200 
Dy5	 0.431944	 0.162690	 0.982800 
Dy6	 0.391987	 0.025871	 0.482800 
Sc7	 0.227635	 0.101834	 0.000000 
Sc8	 0.163674	 0.165795	 0.500000 
Sc9	 0.316024	 0.190222	 0.000000 
Sc10	 0.252062	 0.254184	 0.500000 
Dy11	 0.328026	 0.089832	 0.017200 
Dy12	 0.367983	 0.226652	 0.517200 
Dy13	 0.304021	 0.290613	 0.982800 
Dy14	 0.264065	 0.153793	 0.482800 
Sc15	 0.099713	 0.229757	 0.000000 
Sc16	 0.035752	 0.293718	 0.500000 
Sc17	 0.188101	 0.318145	 0.000000 
Sc18	 0.124140	 0.382106	 0.500000 
Dy19	 0.200103	 0.217754	 0.017200 
Dy20	 0.240060	 0.354574	 0.517200 
Dy21	 0.176099	 0.418535	 0.982800 
Dy22	 0.136142	 0.281716	 0.482800 
Sc23	 0.060179	 0.446067	 0.000000 
Dy24	 0.072181	 0.345677	 0.017200 
Dy25	 0.112138	 0.482497	 0.517200 
Dy26	 0.048176	 0.546458	 0.982800 
Dy27	 0.008220	 0.409638	 0.482800 
Dy28	 0.559866	 0.034768	 0.982800 
Sc29	 0.532334	 0.150688	 0.000000 
Sc30	 0.468373	 0.214650	 0.500000 
Sc31	 0.620723	 0.239077	 0.000000 
Sc32	 0.556762	 0.303038	 0.500000 
Dy33	 0.632725	 0.138686	 0.017200 
Dy34	 0.672682	 0.275506	 0.517200 
Dy35	 0.608721	 0.339467	 0.982800 
Dy36	 0.568764	 0.202647	 0.482800 
Sc37	 0.404412	 0.278611	 0.000000 
Sc38	 0.340451	 0.342572	 0.500000 
Sc39	 0.492800	 0.366999	 0.000000 
Sc40	 0.428839	 0.430960	 0.500000 
Dy41	 0.504802	 0.266609	 0.017200 
Dy42	 0.544759	 0.403428	 0.517200 
Dy43	 0.480798	 0.467390	 0.982800 
Dy44	 0.440841	 0.330570	 0.482800 
Sc45	 0.276489	 0.406533	 0.000000 
Sc46	 0.212528	 0.470495	 0.500000 
Sc47	 0.364878	 0.494922	 0.000000 
Sc48	 0.300917	 0.558883	 0.500000 
Dy49	 0.376880	 0.394531	 0.017200 
Dy50	 0.416837	 0.531351	 0.517200 
Dy51	 0.352876	 0.595312	 0.982800 
Dy52	 0.312919	 0.458492	 0.482800 
Sc53	 0.148567	 0.534456	 0.000000 
Sc54	 0.084606	 0.598417	 0.500000 
Sc55	 0.236955	 0.622844	 0.000000 
Sc56	 0.172994	 0.686805	 0.500000 
Dy57	 0.248957	 0.522454	 0.017200 
Dy58	 0.288914	 0.659273	 0.517200 
Dy59	 0.224953	 0.723235	 0.982800 
Dy60	 0.184996	 0.586415	 0.482800 
Sc61	 0.660257	 0.022766	 0.000000 
Sc62	 0.596296	 0.086727	 0.500000 
Sc63	 0.748645	 0.111154	 0.000000 
Sc64	 0.684684	 0.175115	 0.500000 
Dy65	 0.121035	 0.650376	 0.017200 
Dy66	 0.160992	 0.787196	 0.517200 
Dy67	 0.736643	 0.211545	 0.982800 
Dy68	 0.696686	 0.074725	 0.482800 
Sc69	 0.709111	 0.327465	 0.000000 
Sc70	 0.645150	 0.391426	 0.500000 
Sc71	 0.797500	 0.415853	 0.000000 
Sc72	 0.733538	 0.479815	 0.500000 
Dy73	 0.809502	 0.315463	 0.017200 
Dy74	 0.849459	 0.452283	 0.517200 
Dy75	 0.785497	 0.516244	 0.982800 
Dy76	 0.745540	 0.379424	 0.482800 
Sc77	 0.581189	 0.455387	 0.000000 
Sc78	 0.517227	 0.519349	 0.500000 
Sc79	 0.669577	 0.543776	 0.000000 
Sc80	 0.605616	 0.607737	 0.500000 
Dy81	 0.681579	 0.443385	 0.017200 
Dy82	 0.721536	 0.580205	 0.517200 
Dy83	 0.657575	 0.644166	 0.982800 
Dy84	 0.617618	 0.507347	 0.482800 
Sc85	 0.453266	 0.583310	 0.000000 
Sc86	 0.389305	 0.647271	 0.500000 
Sc87	 0.541654	 0.671698	 0.000000 
Sc88	 0.477693	 0.735660	 0.500000 
Dy89	 0.553657	 0.571308	 0.017200 
Dy90	 0.593614	 0.708128	 0.517200 
Dy91	 0.529652	 0.772089	 0.982800 
Dy92	 0.489695	 0.635269	 0.482800 
Sc93	 0.325344	 0.711233	 0.000000 
Sc94	 0.261382	 0.775194	 0.500000 
Sc95	 0.413732	 0.799621	 0.000000 
Sc96	 0.349771	 0.863582	 0.500000 
Dy97	 0.425734	 0.699230	 0.017200 
Dy98	 0.465691	 0.836050	 0.517200 
Dy99	 0.401730	 0.900011	 0.982800 
Dy100	 0.361773	 0.763192	 0.482800 
Sc101	 0.837034	 0.199542	 0.000000 
Sc102	 0.773072	 0.263504	 0.500000 
Sc103	 0.925422	 0.287931	 0.000000 
Sc104	 0.861461	 0.351892	 0.500000 
Dy105	 0.297812	 0.827153	 0.017200 
Dy106	 0.337769	 0.963973	 0.517200 
Dy107	 0.913420	 0.388321	 0.982800 
Dy108	 0.873463	 0.251502	 0.482800 
Sc109	 0.885888	 0.504242	 0.000000 
Sc110	 0.821927	 0.568203	 0.500000 
Sc111	 0.974276	 0.592630	 0.000000 
Sc112	 0.910315	 0.656591	 0.500000 
Dy113	 0.986278	 0.492240	 0.017200 
Dy114	 0.962274	 0.693021	 0.982800 
Dy115	 0.922317	 0.556201	 0.482800 
Sc116	 0.757965	 0.632164	 0.000000 
Sc117	 0.694004	 0.696125	 0.500000 
Sc118	 0.846354	 0.720553	 0.000000 
Sc119	 0.782392	 0.784514	 0.500000 
Dy120	 0.858356	 0.620162	 0.017200 
Dy121	 0.898313	 0.756982	 0.517200 
Dy122	 0.834352	 0.820943	 0.982800 
Dy123	 0.794395	 0.684123	 0.482800 
Sc124	 0.630043	 0.760087	 0.000000 
Sc125	 0.566082	 0.824048	 0.500000 
Sc126	 0.718431	 0.848475	 0.000000 
Sc127	 0.654470	 0.912436	 0.500000 
Dy128	 0.730433	 0.748085	 0.017200 
Dy129	 0.770390	 0.884904	 0.517200 
Dy130	 0.706429	 0.948866	 0.982800 
Dy131	 0.666472	 0.812046	 0.482800 
Sc132	 0.502120	 0.888009	 0.000000 
Sc133	 0.438159	 0.951970	 0.500000 
Sc134	 0.590509	 0.976398	 0.000000 
Dy135	 0.602511	 0.876007	 0.017200 
Dy136	 0.538550	 0.939968	 0.482800 
Sc137	 0.949849	 0.440280	 0.500000 
#                 ---end-of-data-block---
