data_C:\Users\admin\Documents\atomsegmentation_bupt_fullsuite_3\misc\13074.cif
_cell_length_a               31.652800
_cell_length_b               31.652800
_cell_length_c               5.449400
_cell_angle_alpha          90.000000
_cell_angle_beta           90.000000
_cell_angle_gamma          90.000000
_symmetry_cell_setting          Triclinic
_symmetry_space_group_name_H-M 'P 1' 
loop_
_atom_site_label
_atom_site_fract_x
_atom_site_fract_y
_atom_site_fract_z
Sc1	 0.251209	 0.058737	 0.500000 
Sc2	 0.403559	 0.083164	 0.000000 
Sc3	 0.339598	 0.147126	 0.500000 
Dy4	 0.455518	 0.119594	 0.517200 
Dy5	 0.391557	 0.183555	 0.982800 
Dy6	 0.351600	 0.046735	 0.482800 
Sc7	 0.187248	 0.122699	 0.000000 
Sc8	 0.123287	 0.186660	 0.500000 
Sc9	 0.275636	 0.211087	 0.000000 
Sc10	 0.211675	 0.275048	 0.500000 
Dy11	 0.287638	 0.110696	 0.017200 
Dy12	 0.327595	 0.247516	 0.517200 
Dy13	 0.263634	 0.311477	 0.982800 
Dy14	 0.223677	 0.174658	 0.482800 
Sc15	 0.059325	 0.250621	 0.000000 
Sc16	 0.147714	 0.339009	 0.000000 
Sc17	 0.083753	 0.402971	 0.500000 
Dy18	 0.159716	 0.238619	 0.017200 
Dy19	 0.199673	 0.375439	 0.517200 
Dy20	 0.135712	 0.439400	 0.982800 
Dy21	 0.095755	 0.302580	 0.482800 
Sc22	 0.019791	 0.466932	 0.000000 
Dy23	 0.031793	 0.366541	 0.017200 
Dy24	 0.071750	 0.503361	 0.517200 
Dy25	 0.007789	 0.567322	 0.982800 
Sc26	 0.467520	 0.019203	 0.500000 
Dy27	 0.519479	 0.055632	 0.982800 
Sc28	 0.491947	 0.171553	 0.000000 
Sc29	 0.427986	 0.235514	 0.500000 
Sc30	 0.580336	 0.259941	 0.000000 
Sc31	 0.516374	 0.323902	 0.500000 
Dy32	 0.592338	 0.159551	 0.017200 
Dy33	 0.632295	 0.296370	 0.517200 
Dy34	 0.568333	 0.360332	 0.982800 
Dy35	 0.528376	 0.223512	 0.482800 
Sc36	 0.364025	 0.299475	 0.000000 
Sc37	 0.300063	 0.363436	 0.500000 
Sc38	 0.452413	 0.387864	 0.000000 
Sc39	 0.388452	 0.451825	 0.500000 
Dy40	 0.464415	 0.287473	 0.017200 
Dy41	 0.504372	 0.424293	 0.517200 
Dy42	 0.440411	 0.488254	 0.982800 
Dy43	 0.400454	 0.351434	 0.482800 
Sc44	 0.236102	 0.427398	 0.000000 
Sc45	 0.172141	 0.491359	 0.500000 
Sc46	 0.324490	 0.515786	 0.000000 
Sc47	 0.260529	 0.579747	 0.500000 
Dy48	 0.336493	 0.415396	 0.017200 
Dy49	 0.376450	 0.552215	 0.517200 
Dy50	 0.312488	 0.616177	 0.982800 
Dy51	 0.272531	 0.479357	 0.482800 
Sc52	 0.108180	 0.555320	 0.000000 
Sc53	 0.044218	 0.619282	 0.500000 
Sc54	 0.196568	 0.643709	 0.000000 
Sc55	 0.132607	 0.707670	 0.500000 
Dy56	 0.208570	 0.543318	 0.017200 
Dy57	 0.248527	 0.680138	 0.517200 
Dy58	 0.184566	 0.744099	 0.982800 
Dy59	 0.144609	 0.607279	 0.482800 
Sc60	 0.619870	 0.043630	 0.000000 
Sc61	 0.555908	 0.107591	 0.500000 
Sc62	 0.708258	 0.132019	 0.000000 
Sc63	 0.644297	 0.195980	 0.500000 
Dy64	 0.080648	 0.671241	 0.017200 
Dy65	 0.760217	 0.168448	 0.517200 
Dy66	 0.696256	 0.232409	 0.982800 
Dy67	 0.656299	 0.095589	 0.482800 
Sc68	 0.668724	 0.348329	 0.000000 
Sc69	 0.604763	 0.412291	 0.500000 
Sc70	 0.757112	 0.436718	 0.000000 
Sc71	 0.693151	 0.500679	 0.500000 
Dy72	 0.769114	 0.336327	 0.017200 
Dy73	 0.809071	 0.473147	 0.517200 
Dy74	 0.745110	 0.537108	 0.982800 
Dy75	 0.705153	 0.400288	 0.482800 
Sc76	 0.540801	 0.476252	 0.000000 
Sc77	 0.476840	 0.540213	 0.500000 
Sc78	 0.629190	 0.564640	 0.000000 
Sc79	 0.565228	 0.628602	 0.500000 
Dy80	 0.641192	 0.464250	 0.017200 
Dy81	 0.681149	 0.601070	 0.517200 
Dy82	 0.617188	 0.665031	 0.982800 
Dy83	 0.577231	 0.528211	 0.482800 
Sc84	 0.412879	 0.604174	 0.000000 
Sc85	 0.348918	 0.668136	 0.500000 
Sc86	 0.501267	 0.692563	 0.000000 
Sc87	 0.437306	 0.756524	 0.500000 
Dy88	 0.513269	 0.592172	 0.017200 
Dy89	 0.553226	 0.728992	 0.517200 
Dy90	 0.489265	 0.792953	 0.982800 
Dy91	 0.449308	 0.656134	 0.482800 
Sc92	 0.284956	 0.732097	 0.000000 
Sc93	 0.220995	 0.796058	 0.500000 
Sc94	 0.373345	 0.820485	 0.000000 
Sc95	 0.309383	 0.884447	 0.500000 
Dy96	 0.385347	 0.720095	 0.017200 
Dy97	 0.425304	 0.856915	 0.517200 
Dy98	 0.361342	 0.920876	 0.982800 
Dy99	 0.321386	 0.784056	 0.482800 
Sc100	 0.796646	 0.220407	 0.000000 
Sc101	 0.732685	 0.284368	 0.500000 
Sc102	 0.885035	 0.308795	 0.000000 
Sc103	 0.821073	 0.372757	 0.500000 
Dy104	 0.257424	 0.848017	 0.017200 
Dy105	 0.936994	 0.345225	 0.517200 
Dy106	 0.873033	 0.409186	 0.982800 
Dy107	 0.833076	 0.272366	 0.482800 
Sc108	 0.845501	 0.525106	 0.000000 
Sc109	 0.781539	 0.589067	 0.500000 
Sc110	 0.933889	 0.613494	 0.000000 
Sc111	 0.869928	 0.677456	 0.500000 
Dy112	 0.945891	 0.513104	 0.017200 
Dy113	 0.985848	 0.649924	 0.517200 
Dy114	 0.921887	 0.713885	 0.982800 
Dy115	 0.881930	 0.577065	 0.482800 
Sc116	 0.717578	 0.653029	 0.000000 
Sc117	 0.653617	 0.716990	 0.500000 
Sc118	 0.805966	 0.741417	 0.000000 
Sc119	 0.742005	 0.805378	 0.500000 
Dy120	 0.817969	 0.641026	 0.017200 
Dy121	 0.857925	 0.777846	 0.517200 
Dy122	 0.793964	 0.841808	 0.982800 
Dy123	 0.754007	 0.704988	 0.482800 
Sc124	 0.589656	 0.780951	 0.000000 
Sc125	 0.525694	 0.844912	 0.500000 
Sc126	 0.678044	 0.869339	 0.000000 
Sc127	 0.614083	 0.933301	 0.500000 
Dy128	 0.690046	 0.768949	 0.017200 
Dy129	 0.730003	 0.905769	 0.517200 
Dy130	 0.666042	 0.969730	 0.982800 
Dy131	 0.626085	 0.832910	 0.482800 
Sc132	 0.461733	 0.908874	 0.000000 
Sc133	 0.397772	 0.972835	 0.500000 
Sc134	 0.550121	 0.997262	 0.000000 
Dy135	 0.562124	 0.896871	 0.017200 
Dy136	 0.498162	 0.960833	 0.482800 
Sc137	 0.973423	 0.397184	 0.000000 
Sc138	 0.909462	 0.461145	 0.500000 
Sc139	 0.997850	 0.549533	 0.500000 
#                 ---end-of-data-block---
