data_C:\Users\admin\Documents\atomsegmentation_bupt_fullsuite_3\misc\13083.cif
_cell_length_a               31.652800
_cell_length_b               31.652800
_cell_length_c               5.449400
_cell_angle_alpha          90.000000
_cell_angle_beta           90.000000
_cell_angle_gamma          90.000000
_symmetry_cell_setting          Triclinic
_symmetry_space_group_name_H-M 'P 1' 
loop_
_atom_site_label
_atom_site_fract_x
_atom_site_fract_y
_atom_site_fract_z
Sc1	 0.512070	 0.152580	 0.000000 
Sc2	 0.433734	 0.197808	 0.500000 
Sc3	 0.574570	 0.260833	 0.000000 
Sc4	 0.496234	 0.306061	 0.500000 
Dy5	 0.612146	 0.166970	 0.017200 
Dy6	 0.615330	 0.309469	 0.517200 
Dy7	 0.536994	 0.354697	 0.982800 
Dy8	 0.533810	 0.212197	 0.482800 
Sc9	 0.355398	 0.243035	 0.000000 
Sc10	 0.277061	 0.288262	 0.500000 
Sc11	 0.417898	 0.351288	 0.000000 
Sc12	 0.339561	 0.396516	 0.500000 
Dy13	 0.455474	 0.257425	 0.017200 
Dy14	 0.458658	 0.399924	 0.517200 
Dy15	 0.380321	 0.445152	 0.982800 
Dy16	 0.377137	 0.302652	 0.482800 
Sc17	 0.198725	 0.333490	 0.000000 
Sc18	 0.120389	 0.378717	 0.500000 
Sc19	 0.261225	 0.441743	 0.000000 
Sc20	 0.182889	 0.486970	 0.500000 
Dy21	 0.298801	 0.347880	 0.017200 
Dy22	 0.301985	 0.490379	 0.517200 
Dy23	 0.223649	 0.535606	 0.982800 
Dy24	 0.220465	 0.393107	 0.482800 
Sc25	 0.042053	 0.423945	 0.000000 
Sc26	 0.104553	 0.532198	 0.000000 
Sc27	 0.026216	 0.577425	 0.500000 
Dy28	 0.142129	 0.438334	 0.017200 
Dy29	 0.145313	 0.580834	 0.517200 
Dy30	 0.066976	 0.626061	 0.982800 
Dy31	 0.063793	 0.483562	 0.482800 
Sc32	 0.668742	 0.062125	 0.000000 
Sc33	 0.590406	 0.107353	 0.500000 
Sc34	 0.731242	 0.170378	 0.000000 
Sc35	 0.652906	 0.215606	 0.500000 
Dy36	 0.768819	 0.076515	 0.017200 
Dy37	 0.772002	 0.219014	 0.517200 
Dy38	 0.693666	 0.264242	 0.982800 
Dy39	 0.690482	 0.121742	 0.482800 
Sc40	 0.637070	 0.369086	 0.000000 
Sc41	 0.558734	 0.414314	 0.500000 
Sc42	 0.699570	 0.477340	 0.000000 
Sc43	 0.621234	 0.522567	 0.500000 
Dy44	 0.737146	 0.383476	 0.017200 
Dy45	 0.740330	 0.525976	 0.517200 
Dy46	 0.661994	 0.571203	 0.982800 
Dy47	 0.658810	 0.428704	 0.482800 
Sc48	 0.480398	 0.459541	 0.000000 
Sc49	 0.402061	 0.504769	 0.500000 
Sc50	 0.542898	 0.567794	 0.000000 
Sc51	 0.464561	 0.613022	 0.500000 
Dy52	 0.580474	 0.473931	 0.017200 
Dy53	 0.583658	 0.616430	 0.517200 
Dy54	 0.505321	 0.661658	 0.982800 
Dy55	 0.502137	 0.519159	 0.482800 
Sc56	 0.323725	 0.549996	 0.000000 
Sc57	 0.245389	 0.595224	 0.500000 
Sc58	 0.386225	 0.658249	 0.000000 
Sc59	 0.307889	 0.703477	 0.500000 
Dy60	 0.423801	 0.564386	 0.017200 
Dy61	 0.426985	 0.706885	 0.517200 
Dy62	 0.348649	 0.752113	 0.982800 
Dy63	 0.345465	 0.609613	 0.482800 
Sc64	 0.167053	 0.640451	 0.000000 
Sc65	 0.088716	 0.685678	 0.500000 
Sc66	 0.229553	 0.748704	 0.000000 
Sc67	 0.151216	 0.793932	 0.500000 
Dy68	 0.267129	 0.654841	 0.017200 
Dy69	 0.270313	 0.797340	 0.517200 
Dy70	 0.191976	 0.842568	 0.982800 
Dy71	 0.188793	 0.700068	 0.482800 
Sc72	 0.793742	 0.278632	 0.000000 
Sc73	 0.715406	 0.323859	 0.500000 
Sc74	 0.856242	 0.386885	 0.000000 
Sc75	 0.777906	 0.432112	 0.500000 
Dy76	 0.893819	 0.293021	 0.017200 
Dy77	 0.897002	 0.435521	 0.517200 
Dy78	 0.818666	 0.480748	 0.982800 
Dy79	 0.815482	 0.338249	 0.482800 
Sc80	 0.762070	 0.585593	 0.000000 
Sc81	 0.683734	 0.630820	 0.500000 
Sc82	 0.824570	 0.693846	 0.000000 
Sc83	 0.746234	 0.739073	 0.500000 
Dy84	 0.862146	 0.599983	 0.017200 
Dy85	 0.865330	 0.742482	 0.517200 
Dy86	 0.786994	 0.787709	 0.982800 
Dy87	 0.783810	 0.645210	 0.482800 
Sc88	 0.605398	 0.676048	 0.000000 
Sc89	 0.527061	 0.721275	 0.500000 
Sc90	 0.667898	 0.784301	 0.000000 
Sc91	 0.589561	 0.829528	 0.500000 
Dy92	 0.705474	 0.690437	 0.017200 
Dy93	 0.708658	 0.832937	 0.517200 
Dy94	 0.630321	 0.878164	 0.982800 
Dy95	 0.627137	 0.735665	 0.482800 
Sc96	 0.448725	 0.766503	 0.000000 
Sc97	 0.370389	 0.811730	 0.500000 
Sc98	 0.511225	 0.874756	 0.000000 
Sc99	 0.432889	 0.919983	 0.500000 
Dy100	 0.548801	 0.780892	 0.017200 
Dy101	 0.551985	 0.923392	 0.517200 
Dy102	 0.473649	 0.968619	 0.982800 
Dy103	 0.470465	 0.826120	 0.482800 
Sc104	 0.292053	 0.856957	 0.000000 
Sc105	 0.213716	 0.902185	 0.500000 
Sc106	 0.354553	 0.965211	 0.000000 
Dy107	 0.392129	 0.871347	 0.017200 
Dy108	 0.313793	 0.916575	 0.482800 
Sc109	 0.918742	 0.495138	 0.000000 
Sc110	 0.840406	 0.540365	 0.500000 
Sc111	 0.981242	 0.603391	 0.000000 
Sc112	 0.902906	 0.648619	 0.500000 
Dy113	 0.943666	 0.697255	 0.982800 
Dy114	 0.940482	 0.554755	 0.482800 
Sc115	 0.887070	 0.802099	 0.000000 
Sc116	 0.808734	 0.847327	 0.500000 
Sc117	 0.449570	 0.044327	 0.000000 
Sc118	 0.371234	 0.089554	 0.500000 
Dy119	 0.490330	 0.092963	 0.517200 
Dy120	 0.411994	 0.138190	 0.982800 
Sc121	 0.730398	 0.892554	 0.000000 
Sc122	 0.652061	 0.937781	 0.500000 
Sc123	 0.292898	 0.134782	 0.000000 
Sc124	 0.214561	 0.180009	 0.500000 
Dy125	 0.330474	 0.040918	 0.017200 
Dy126	 0.333658	 0.183418	 0.517200 
Dy127	 0.255321	 0.228645	 0.982800 
Dy128	 0.252137	 0.086146	 0.482800 
Sc129	 0.573725	 0.983009	 0.000000 
Sc130	 0.136225	 0.225237	 0.000000 
Sc131	 0.057889	 0.270464	 0.500000 
Dy132	 0.173801	 0.131373	 0.017200 
Dy133	 0.176985	 0.273873	 0.517200 
Dy134	 0.098649	 0.319100	 0.982800 
Dy135	 0.095465	 0.176601	 0.482800 
Dy136	 0.017129	 0.221828	 0.017200 
Dy137	 0.020313	 0.364328	 0.517200 
Sc138	 0.965406	 0.756872	 0.500000 
Dy139	 0.647002	 0.002508	 0.517200 
Dy140	 0.568666	 0.047735	 0.982800 
#                 ---end-of-data-block---
