data_C:\Users\admin\Documents\atomsegmentation_bupt_fullsuite_3\misc\13086.cif
_cell_length_a               31.652800
_cell_length_b               31.652800
_cell_length_c               5.449400
_cell_angle_alpha          90.000000
_cell_angle_beta           90.000000
_cell_angle_gamma          90.000000
_symmetry_cell_setting          Triclinic
_symmetry_space_group_name_H-M 'P 1' 
loop_
_atom_site_label
_atom_site_fract_x
_atom_site_fract_y
_atom_site_fract_z
Sc1	 0.655346	 0.112220	 0.000000 
Sc2	 0.577009	 0.157448	 0.500000 
Sc3	 0.717846	 0.220473	 0.000000 
Sc4	 0.639509	 0.265701	 0.500000 
Dy5	 0.755422	 0.126610	 0.017200 
Dy6	 0.758606	 0.269109	 0.517200 
Dy7	 0.680269	 0.314337	 0.982800 
Dy8	 0.677086	 0.171838	 0.482800 
Sc9	 0.498673	 0.202675	 0.000000 
Sc10	 0.420337	 0.247903	 0.500000 
Sc11	 0.561173	 0.310928	 0.000000 
Sc12	 0.482837	 0.356156	 0.500000 
Dy13	 0.598749	 0.217065	 0.017200 
Dy14	 0.601933	 0.359564	 0.517200 
Dy15	 0.523597	 0.404792	 0.982800 
Dy16	 0.520413	 0.262292	 0.482800 
Sc17	 0.342001	 0.293130	 0.000000 
Sc18	 0.263665	 0.338357	 0.500000 
Sc19	 0.404501	 0.401383	 0.000000 
Sc20	 0.326165	 0.446611	 0.500000 
Dy21	 0.442077	 0.307520	 0.017200 
Dy22	 0.445261	 0.450019	 0.517200 
Dy23	 0.366925	 0.495247	 0.982800 
Dy24	 0.363741	 0.352747	 0.482800 
Sc25	 0.185328	 0.383585	 0.000000 
Sc26	 0.106992	 0.428812	 0.500000 
Sc27	 0.247828	 0.491838	 0.000000 
Sc28	 0.169492	 0.537066	 0.500000 
Dy29	 0.285405	 0.397975	 0.017200 
Dy30	 0.288588	 0.540474	 0.517200 
Dy31	 0.210252	 0.585702	 0.982800 
Dy32	 0.207068	 0.443202	 0.482800 
Sc33	 0.028656	 0.474040	 0.000000 
Sc34	 0.733682	 0.066993	 0.500000 
Sc35	 0.091156	 0.582293	 0.000000 
Sc36	 0.796182	 0.175246	 0.500000 
Dy37	 0.128732	 0.488430	 0.017200 
Dy38	 0.131916	 0.630929	 0.517200 
Dy39	 0.836942	 0.223882	 0.982800 
Dy40	 0.050396	 0.533657	 0.482800 
Sc41	 0.780346	 0.328727	 0.000000 
Sc42	 0.702009	 0.373954	 0.500000 
Sc43	 0.842846	 0.436980	 0.000000 
Sc44	 0.764509	 0.482207	 0.500000 
Dy45	 0.880422	 0.343116	 0.017200 
Dy46	 0.883606	 0.485616	 0.517200 
Dy47	 0.805269	 0.530843	 0.982800 
Dy48	 0.802086	 0.388344	 0.482800 
Sc49	 0.623673	 0.419182	 0.000000 
Sc50	 0.545337	 0.464409	 0.500000 
Sc51	 0.686173	 0.527435	 0.000000 
Sc52	 0.607837	 0.572662	 0.500000 
Dy53	 0.723749	 0.433571	 0.017200 
Dy54	 0.726933	 0.576071	 0.517200 
Dy55	 0.648597	 0.621298	 0.982800 
Dy56	 0.645413	 0.478799	 0.482800 
Sc57	 0.467001	 0.509636	 0.000000 
Sc58	 0.388665	 0.554864	 0.500000 
Sc59	 0.529501	 0.617890	 0.000000 
Sc60	 0.451165	 0.663117	 0.500000 
Dy61	 0.567077	 0.524026	 0.017200 
Dy62	 0.570261	 0.666526	 0.517200 
Dy63	 0.491925	 0.711753	 0.982800 
Dy64	 0.488741	 0.569254	 0.482800 
Sc65	 0.310328	 0.600091	 0.000000 
Sc66	 0.231992	 0.645319	 0.500000 
Sc67	 0.372828	 0.708344	 0.000000 
Sc68	 0.294492	 0.753572	 0.500000 
Dy69	 0.410405	 0.614481	 0.017200 
Dy70	 0.413588	 0.756980	 0.517200 
Dy71	 0.335252	 0.802208	 0.982800 
Dy72	 0.332068	 0.659708	 0.482800 
Sc73	 0.153656	 0.690546	 0.000000 
Sc74	 0.858682	 0.283499	 0.500000 
Sc75	 0.216156	 0.798799	 0.000000 
Sc76	 0.921182	 0.391752	 0.500000 
Dy77	 0.253732	 0.704936	 0.017200 
Dy78	 0.256916	 0.847435	 0.517200 
Dy79	 0.961942	 0.440388	 0.982800 
Dy80	 0.175396	 0.750163	 0.482800 
Sc81	 0.905346	 0.545233	 0.000000 
Sc82	 0.827009	 0.590460	 0.500000 
Sc83	 0.967846	 0.653486	 0.000000 
Sc84	 0.889509	 0.698714	 0.500000 
Dy85	 0.930269	 0.747350	 0.982800 
Dy86	 0.927086	 0.604850	 0.482800 
Sc87	 0.748673	 0.635688	 0.000000 
Sc88	 0.670337	 0.680915	 0.500000 
Sc89	 0.811173	 0.743941	 0.000000 
Sc90	 0.732837	 0.789169	 0.500000 
Dy91	 0.848749	 0.650078	 0.017200 
Dy92	 0.851933	 0.792577	 0.517200 
Dy93	 0.773597	 0.837804	 0.982800 
Dy94	 0.770413	 0.695305	 0.482800 
Sc95	 0.592001	 0.726143	 0.000000 
Sc96	 0.513665	 0.771370	 0.500000 
Sc97	 0.654501	 0.834396	 0.000000 
Sc98	 0.576165	 0.879623	 0.500000 
Dy99	 0.692077	 0.740533	 0.017200 
Dy100	 0.695261	 0.883032	 0.517200 
Dy101	 0.616925	 0.928259	 0.982800 
Dy102	 0.613741	 0.785760	 0.482800 
Sc103	 0.435328	 0.816598	 0.000000 
Sc104	 0.356992	 0.861825	 0.500000 
Sc105	 0.497828	 0.924851	 0.000000 
Sc106	 0.419492	 0.970078	 0.500000 
Dy107	 0.535405	 0.830987	 0.017200 
Dy108	 0.538588	 0.973487	 0.517200 
Dy109	 0.457068	 0.876215	 0.482800 
Sc110	 0.278656	 0.907053	 0.000000 
Sc111	 0.983682	 0.500006	 0.500000 
Dy112	 0.378732	 0.921442	 0.017200 
Dy113	 0.300396	 0.966670	 0.482800 
Sc114	 0.952009	 0.806967	 0.500000 
Sc115	 0.592846	 0.003967	 0.000000 
Sc116	 0.514509	 0.049195	 0.500000 
Dy117	 0.633606	 0.052603	 0.517200 
Dy118	 0.555269	 0.097831	 0.982800 
Sc119	 0.873673	 0.852194	 0.000000 
Sc120	 0.795337	 0.897422	 0.500000 
Sc121	 0.436173	 0.094422	 0.000000 
Sc122	 0.357837	 0.139649	 0.500000 
Dy123	 0.473749	 0.000559	 0.017200 
Dy124	 0.476933	 0.143058	 0.517200 
Dy125	 0.398597	 0.188285	 0.982800 
Dy126	 0.395413	 0.045786	 0.482800 
Sc127	 0.717001	 0.942649	 0.000000 
Sc128	 0.638665	 0.987877	 0.500000 
Sc129	 0.279501	 0.184877	 0.000000 
Sc130	 0.201165	 0.230104	 0.500000 
Dy131	 0.317077	 0.091013	 0.017200 
Dy132	 0.320261	 0.233513	 0.517200 
Dy133	 0.241925	 0.278740	 0.982800 
Dy134	 0.238741	 0.136241	 0.482800 
Sc135	 0.122828	 0.275332	 0.000000 
Sc136	 0.044492	 0.320559	 0.500000 
Dy137	 0.160405	 0.181468	 0.017200 
Dy138	 0.163588	 0.323968	 0.517200 
Dy139	 0.085252	 0.369195	 0.982800 
Dy140	 0.082068	 0.226696	 0.482800 
Dy141	 0.003732	 0.271923	 0.017200 
Dy142	 0.006916	 0.414423	 0.517200 
Dy143	 0.711942	 0.007376	 0.982800 
#                 ---end-of-data-block---
