data_C:\Users\admin\Documents\atomsegmentation_bupt_fullsuite_3\misc\13085.cif
_cell_length_a               31.652800
_cell_length_b               31.652800
_cell_length_c               5.449400
_cell_angle_alpha          90.000000
_cell_angle_beta           90.000000
_cell_angle_gamma          90.000000
_symmetry_cell_setting          Triclinic
_symmetry_space_group_name_H-M 'P 1' 
loop_
_atom_site_label
_atom_site_fract_x
_atom_site_fract_y
_atom_site_fract_z
Sc1	 0.638124	 0.128257	 0.000000 
Sc2	 0.559788	 0.173484	 0.500000 
Sc3	 0.700624	 0.236510	 0.000000 
Sc4	 0.622288	 0.281737	 0.500000 
Dy5	 0.738200	 0.142647	 0.017200 
Dy6	 0.741384	 0.285146	 0.517200 
Dy7	 0.663048	 0.330373	 0.982800 
Dy8	 0.659864	 0.187874	 0.482800 
Sc9	 0.481452	 0.218712	 0.000000 
Sc10	 0.403115	 0.263939	 0.500000 
Sc11	 0.543952	 0.326965	 0.000000 
Sc12	 0.465615	 0.372192	 0.500000 
Dy13	 0.581528	 0.233101	 0.017200 
Dy14	 0.584712	 0.375601	 0.517200 
Dy15	 0.506375	 0.420828	 0.982800 
Dy16	 0.503192	 0.278329	 0.482800 
Sc17	 0.324779	 0.309167	 0.000000 
Sc18	 0.246443	 0.354394	 0.500000 
Sc19	 0.387279	 0.417420	 0.000000 
Sc20	 0.308943	 0.462647	 0.500000 
Dy21	 0.424855	 0.323556	 0.017200 
Dy22	 0.428039	 0.466056	 0.517200 
Dy23	 0.349703	 0.511283	 0.982800 
Dy24	 0.346519	 0.368784	 0.482800 
Sc25	 0.168107	 0.399621	 0.000000 
Sc26	 0.089771	 0.444849	 0.500000 
Sc27	 0.230607	 0.507875	 0.000000 
Sc28	 0.152271	 0.553102	 0.500000 
Dy29	 0.268183	 0.414011	 0.017200 
Dy30	 0.271367	 0.556511	 0.517200 
Dy31	 0.193031	 0.601738	 0.982800 
Dy32	 0.189847	 0.459239	 0.482800 
Sc33	 0.011434	 0.490076	 0.000000 
Sc34	 0.716460	 0.083029	 0.500000 
Sc35	 0.073934	 0.598329	 0.000000 
Sc36	 0.778960	 0.191283	 0.500000 
Dy37	 0.111511	 0.504466	 0.017200 
Dy38	 0.114694	 0.646965	 0.517200 
Dy39	 0.819720	 0.239919	 0.982800 
Dy40	 0.033174	 0.549694	 0.482800 
Sc41	 0.763124	 0.344763	 0.000000 
Sc42	 0.684788	 0.389991	 0.500000 
Sc43	 0.825624	 0.453016	 0.000000 
Sc44	 0.747288	 0.498244	 0.500000 
Dy45	 0.863200	 0.359153	 0.017200 
Dy46	 0.866384	 0.501652	 0.517200 
Dy47	 0.788048	 0.546880	 0.982800 
Dy48	 0.784864	 0.404380	 0.482800 
Sc49	 0.606452	 0.435218	 0.000000 
Sc50	 0.528115	 0.480445	 0.500000 
Sc51	 0.668952	 0.543471	 0.000000 
Sc52	 0.590615	 0.588699	 0.500000 
Dy53	 0.706528	 0.449608	 0.017200 
Dy54	 0.709712	 0.592107	 0.517200 
Dy55	 0.631375	 0.637335	 0.982800 
Dy56	 0.628192	 0.494835	 0.482800 
Sc57	 0.449779	 0.525673	 0.000000 
Sc58	 0.371443	 0.570900	 0.500000 
Sc59	 0.512279	 0.633926	 0.000000 
Sc60	 0.433943	 0.679154	 0.500000 
Dy61	 0.549855	 0.540063	 0.017200 
Dy62	 0.553039	 0.682562	 0.517200 
Dy63	 0.474703	 0.727790	 0.982800 
Dy64	 0.471519	 0.585290	 0.482800 
Sc65	 0.293107	 0.616128	 0.000000 
Sc66	 0.214771	 0.661355	 0.500000 
Sc67	 0.355607	 0.724381	 0.000000 
Sc68	 0.277271	 0.769608	 0.500000 
Dy69	 0.393183	 0.630518	 0.017200 
Dy70	 0.396367	 0.773017	 0.517200 
Dy71	 0.318031	 0.818244	 0.982800 
Dy72	 0.314847	 0.675745	 0.482800 
Sc73	 0.136434	 0.706583	 0.000000 
Sc74	 0.841460	 0.299536	 0.500000 
Sc75	 0.198934	 0.814836	 0.000000 
Sc76	 0.903960	 0.407789	 0.500000 
Dy77	 0.236511	 0.720972	 0.017200 
Dy78	 0.239694	 0.863472	 0.517200 
Dy79	 0.944720	 0.456425	 0.982800 
Dy80	 0.158174	 0.766200	 0.482800 
Sc81	 0.888124	 0.561270	 0.000000 
Sc82	 0.809788	 0.606497	 0.500000 
Sc83	 0.950624	 0.669523	 0.000000 
Sc84	 0.872288	 0.714750	 0.500000 
Dy85	 0.988200	 0.575659	 0.017200 
Dy86	 0.991384	 0.718159	 0.517200 
Dy87	 0.913048	 0.763386	 0.982800 
Dy88	 0.909864	 0.620887	 0.482800 
Sc89	 0.731452	 0.651724	 0.000000 
Sc90	 0.653115	 0.696952	 0.500000 
Sc91	 0.793952	 0.759978	 0.000000 
Sc92	 0.715615	 0.805205	 0.500000 
Dy93	 0.831528	 0.666114	 0.017200 
Dy94	 0.834712	 0.808614	 0.517200 
Dy95	 0.756375	 0.853841	 0.982800 
Dy96	 0.753192	 0.711342	 0.482800 
Sc97	 0.574779	 0.742179	 0.000000 
Sc98	 0.496443	 0.787407	 0.500000 
Sc99	 0.637279	 0.850432	 0.000000 
Sc100	 0.558943	 0.895660	 0.500000 
Dy101	 0.674855	 0.756569	 0.017200 
Dy102	 0.678039	 0.899068	 0.517200 
Dy103	 0.599703	 0.944296	 0.982800 
Dy104	 0.596519	 0.801796	 0.482800 
Sc105	 0.418107	 0.832634	 0.000000 
Sc106	 0.339771	 0.877862	 0.500000 
Sc107	 0.480607	 0.940887	 0.000000 
Sc108	 0.402271	 0.986115	 0.500000 
Dy109	 0.518183	 0.847024	 0.017200 
Dy110	 0.521367	 0.989523	 0.517200 
Dy111	 0.439847	 0.892251	 0.482800 
Sc112	 0.261434	 0.923089	 0.000000 
Sc113	 0.966460	 0.516042	 0.500000 
Dy114	 0.361511	 0.937479	 0.017200 
Dy115	 0.283174	 0.982706	 0.482800 
Sc116	 0.934788	 0.823003	 0.500000 
Sc117	 0.575624	 0.020004	 0.000000 
Sc118	 0.497288	 0.065231	 0.500000 
Dy119	 0.616384	 0.068640	 0.517200 
Dy120	 0.538048	 0.113867	 0.982800 
Sc121	 0.856452	 0.868231	 0.000000 
Sc122	 0.778115	 0.913458	 0.500000 
Sc123	 0.418952	 0.110459	 0.000000 
Sc124	 0.340615	 0.155686	 0.500000 
Dy125	 0.456528	 0.016595	 0.017200 
Dy126	 0.459712	 0.159094	 0.517200 
Dy127	 0.381375	 0.204322	 0.982800 
Dy128	 0.378192	 0.061823	 0.482800 
Sc129	 0.699779	 0.958686	 0.000000 
Sc130	 0.262279	 0.200913	 0.000000 
Sc131	 0.183943	 0.246141	 0.500000 
Dy132	 0.299855	 0.107050	 0.017200 
Dy133	 0.303039	 0.249549	 0.517200 
Dy134	 0.224703	 0.294777	 0.982800 
Dy135	 0.221519	 0.152277	 0.482800 
Sc136	 0.105607	 0.291368	 0.000000 
Sc137	 0.027271	 0.336596	 0.500000 
Dy138	 0.143183	 0.197505	 0.017200 
Dy139	 0.146367	 0.340004	 0.517200 
Dy140	 0.068031	 0.385232	 0.982800 
Dy141	 0.064847	 0.242732	 0.482800 
Dy142	 0.694720	 0.023412	 0.982800 
#                 ---end-of-data-block---
