data_C:\Users\admin\Documents\atomsegmentation_bupt_fullsuite_3\misc\13084.cif
_cell_length_a               31.652800
_cell_length_b               31.652800
_cell_length_c               5.449400
_cell_angle_alpha          90.000000
_cell_angle_beta           90.000000
_cell_angle_gamma          90.000000
_symmetry_cell_setting          Triclinic
_symmetry_space_group_name_H-M 'P 1' 
loop_
_atom_site_label
_atom_site_fract_x
_atom_site_fract_y
_atom_site_fract_z
Sc1	 0.507160	 0.086700	 0.000000 
Sc2	 0.428824	 0.131927	 0.500000 
Sc3	 0.569660	 0.194953	 0.000000 
Sc4	 0.491324	 0.240180	 0.500000 
Dy5	 0.607237	 0.101089	 0.017200 
Dy6	 0.610420	 0.243589	 0.517200 
Dy7	 0.532084	 0.288816	 0.982800 
Dy8	 0.528900	 0.146317	 0.482800 
Sc9	 0.350488	 0.177154	 0.000000 
Sc10	 0.272152	 0.222382	 0.500000 
Sc11	 0.412988	 0.285408	 0.000000 
Sc12	 0.334652	 0.330635	 0.500000 
Dy13	 0.450564	 0.191544	 0.017200 
Dy14	 0.453748	 0.334044	 0.517200 
Dy15	 0.375412	 0.379271	 0.982800 
Dy16	 0.372228	 0.236772	 0.482800 
Sc17	 0.193816	 0.267609	 0.000000 
Sc18	 0.115479	 0.312837	 0.500000 
Sc19	 0.256316	 0.375862	 0.000000 
Sc20	 0.177979	 0.421090	 0.500000 
Dy21	 0.293892	 0.281999	 0.017200 
Dy22	 0.297076	 0.424498	 0.517200 
Dy23	 0.218739	 0.469726	 0.982800 
Dy24	 0.215556	 0.327226	 0.482800 
Sc25	 0.037143	 0.358064	 0.000000 
Sc26	 0.099643	 0.466317	 0.000000 
Sc27	 0.021307	 0.511545	 0.500000 
Dy28	 0.137219	 0.372454	 0.017200 
Dy29	 0.140403	 0.514953	 0.517200 
Dy30	 0.062067	 0.560181	 0.982800 
Dy31	 0.058883	 0.417681	 0.482800 
Sc32	 0.585497	 0.041472	 0.500000 
Sc33	 0.726333	 0.104498	 0.000000 
Sc34	 0.647997	 0.149725	 0.500000 
Dy35	 0.767093	 0.153134	 0.517200 
Dy36	 0.688757	 0.198361	 0.982800 
Dy37	 0.685573	 0.055862	 0.482800 
Sc38	 0.632160	 0.303206	 0.000000 
Sc39	 0.553824	 0.348433	 0.500000 
Sc40	 0.694660	 0.411459	 0.000000 
Sc41	 0.616324	 0.456686	 0.500000 
Dy42	 0.732237	 0.317596	 0.017200 
Dy43	 0.735420	 0.460095	 0.517200 
Dy44	 0.657084	 0.505322	 0.982800 
Dy45	 0.653900	 0.362823	 0.482800 
Sc46	 0.475488	 0.393661	 0.000000 
Sc47	 0.397152	 0.438888	 0.500000 
Sc48	 0.537988	 0.501914	 0.000000 
Sc49	 0.459652	 0.547141	 0.500000 
Dy50	 0.575564	 0.408051	 0.017200 
Dy51	 0.578748	 0.550550	 0.517200 
Dy52	 0.500412	 0.595777	 0.982800 
Dy53	 0.497228	 0.453278	 0.482800 
Sc54	 0.318816	 0.484116	 0.000000 
Sc55	 0.240479	 0.529343	 0.500000 
Sc56	 0.381316	 0.592369	 0.000000 
Sc57	 0.302979	 0.637596	 0.500000 
Dy58	 0.418892	 0.498505	 0.017200 
Dy59	 0.422076	 0.641005	 0.517200 
Dy60	 0.343739	 0.686232	 0.982800 
Dy61	 0.340556	 0.543733	 0.482800 
Sc62	 0.162143	 0.574570	 0.000000 
Sc63	 0.083807	 0.619798	 0.500000 
Sc64	 0.224643	 0.682824	 0.000000 
Sc65	 0.146307	 0.728051	 0.500000 
Dy66	 0.262219	 0.588960	 0.017200 
Dy67	 0.265403	 0.731460	 0.517200 
Dy68	 0.187067	 0.776687	 0.982800 
Dy69	 0.183883	 0.634188	 0.482800 
Sc70	 0.788833	 0.212751	 0.000000 
Sc71	 0.710497	 0.257978	 0.500000 
Sc72	 0.851333	 0.321004	 0.000000 
Sc73	 0.772997	 0.366232	 0.500000 
Dy74	 0.105547	 0.679415	 0.017200 
Dy75	 0.892093	 0.369640	 0.517200 
Dy76	 0.813757	 0.414868	 0.982800 
Dy77	 0.810573	 0.272368	 0.482800 
Sc78	 0.757160	 0.519712	 0.000000 
Sc79	 0.678824	 0.564940	 0.500000 
Sc80	 0.819660	 0.627965	 0.000000 
Sc81	 0.741324	 0.673193	 0.500000 
Dy82	 0.857237	 0.534102	 0.017200 
Dy83	 0.860420	 0.676601	 0.517200 
Dy84	 0.782084	 0.721829	 0.982800 
Dy85	 0.778900	 0.579329	 0.482800 
Sc86	 0.600488	 0.610167	 0.000000 
Sc87	 0.522152	 0.655395	 0.500000 
Sc88	 0.662988	 0.718420	 0.000000 
Sc89	 0.584652	 0.763648	 0.500000 
Dy90	 0.700564	 0.624557	 0.017200 
Dy91	 0.703748	 0.767056	 0.517200 
Dy92	 0.625412	 0.812284	 0.982800 
Dy93	 0.622228	 0.669784	 0.482800 
Sc94	 0.443816	 0.700622	 0.000000 
Sc95	 0.365479	 0.745849	 0.500000 
Sc96	 0.506316	 0.808875	 0.000000 
Sc97	 0.427979	 0.854103	 0.500000 
Dy98	 0.543892	 0.715012	 0.017200 
Dy99	 0.547076	 0.857511	 0.517200 
Dy100	 0.468739	 0.902739	 0.982800 
Dy101	 0.465556	 0.760239	 0.482800 
Sc102	 0.287143	 0.791077	 0.000000 
Sc103	 0.208807	 0.836304	 0.500000 
Sc104	 0.349643	 0.899330	 0.000000 
Sc105	 0.271307	 0.944557	 0.500000 
Dy106	 0.387219	 0.805467	 0.017200 
Dy107	 0.390403	 0.947966	 0.517200 
Dy108	 0.312067	 0.993193	 0.982800 
Dy109	 0.308883	 0.850694	 0.482800 
Sc110	 0.913833	 0.429257	 0.000000 
Sc111	 0.835497	 0.474485	 0.500000 
Sc112	 0.976333	 0.537511	 0.000000 
Sc113	 0.897997	 0.582738	 0.500000 
Dy114	 0.230547	 0.895921	 0.017200 
Dy115	 0.938757	 0.631374	 0.982800 
Dy116	 0.935573	 0.488875	 0.482800 
Sc117	 0.882160	 0.736219	 0.000000 
Sc118	 0.803824	 0.781446	 0.500000 
Sc119	 0.366324	 0.023674	 0.500000 
Dy120	 0.982237	 0.750608	 0.017200 
Dy121	 0.485420	 0.027082	 0.517200 
Dy122	 0.407084	 0.072310	 0.982800 
Dy123	 0.903900	 0.795836	 0.482800 
Sc124	 0.725488	 0.826673	 0.000000 
Sc125	 0.647152	 0.871901	 0.500000 
Sc126	 0.287988	 0.068901	 0.000000 
Sc127	 0.209652	 0.114129	 0.500000 
Dy128	 0.825564	 0.841063	 0.017200 
Dy129	 0.328748	 0.117537	 0.517200 
Dy130	 0.250412	 0.162765	 0.982800 
Dy131	 0.747228	 0.886291	 0.482800 
Sc132	 0.568816	 0.917128	 0.000000 
Sc133	 0.490479	 0.962356	 0.500000 
Sc134	 0.131316	 0.159356	 0.000000 
Sc135	 0.052979	 0.204584	 0.500000 
Dy136	 0.668892	 0.931518	 0.017200 
Dy137	 0.172076	 0.207992	 0.517200 
Dy138	 0.093739	 0.253220	 0.982800 
Dy139	 0.590556	 0.976746	 0.482800 
Dy140	 0.015403	 0.298447	 0.517200 
Sc141	 0.960497	 0.690991	 0.500000 
#                 ---end-of-data-block---
