data_C:\Users\admin\Documents\atomsegmentation_bupt_fullsuite_3\misc\13094.cif
_cell_length_a               31.652800
_cell_length_b               31.652800
_cell_length_c               5.449400
_cell_angle_alpha          90.000000
_cell_angle_beta           90.000000
_cell_angle_gamma          90.000000
_symmetry_cell_setting          Triclinic
_symmetry_space_group_name_H-M 'P 1' 
loop_
_atom_site_label
_atom_site_fract_x
_atom_site_fract_y
_atom_site_fract_z
Sc1	 0.737027	 0.083293	 0.000000 
Sc2	 0.649654	 0.106705	 0.500000 
Dy3	 0.797616	 0.002354	 0.017200 
Dy4	 0.763810	 0.140822	 0.517200 
Dy5	 0.676437	 0.164233	 0.982800 
Dy6	 0.710243	 0.025765	 0.482800 
Sc7	 0.529929	 0.009375	 0.000000 
Sc8	 0.442556	 0.032787	 0.500000 
Sc9	 0.562281	 0.130116	 0.000000 
Sc10	 0.474908	 0.153528	 0.500000 
Dy11	 0.622871	 0.049177	 0.017200 
Dy12	 0.589064	 0.187644	 0.517200 
Dy13	 0.501692	 0.211056	 0.982800 
Dy14	 0.535498	 0.072588	 0.482800 
Sc15	 0.355183	 0.056198	 0.000000 
Sc16	 0.267811	 0.079610	 0.500000 
Sc17	 0.387536	 0.176939	 0.000000 
Sc18	 0.300163	 0.200351	 0.500000 
Dy19	 0.448125	 0.095999	 0.017200 
Dy20	 0.414319	 0.234467	 0.517200 
Dy21	 0.326946	 0.257879	 0.982800 
Dy22	 0.360753	 0.119411	 0.482800 
Sc23	 0.180438	 0.103021	 0.000000 
Sc24	 0.093065	 0.126433	 0.500000 
Sc25	 0.212790	 0.223762	 0.000000 
Sc26	 0.125418	 0.247173	 0.500000 
Dy27	 0.273380	 0.142822	 0.017200 
Dy28	 0.239574	 0.281290	 0.517200 
Dy29	 0.152201	 0.304702	 0.982800 
Dy30	 0.186007	 0.166234	 0.482800 
Sc31	 0.005693	 0.149844	 0.000000 
Sc32	 0.038045	 0.270585	 0.000000 
Sc33	 0.824399	 0.059882	 0.500000 
Dy34	 0.098634	 0.189645	 0.017200 
Dy35	 0.064828	 0.328113	 0.517200 
Dy36	 0.851183	 0.117410	 0.982800 
Dy37	 0.011262	 0.213057	 0.482800 
Sc38	 0.769379	 0.204034	 0.000000 
Sc39	 0.682006	 0.227445	 0.500000 
Sc40	 0.801731	 0.324775	 0.000000 
Sc41	 0.714359	 0.348186	 0.500000 
Dy42	 0.862321	 0.243835	 0.017200 
Dy43	 0.828515	 0.382303	 0.517200 
Dy44	 0.741142	 0.405714	 0.982800 
Dy45	 0.774948	 0.267247	 0.482800 
Sc46	 0.594634	 0.250857	 0.000000 
Sc47	 0.507261	 0.274268	 0.500000 
Sc48	 0.626986	 0.371598	 0.000000 
Sc49	 0.539613	 0.395009	 0.500000 
Dy50	 0.687575	 0.290658	 0.017200 
Dy51	 0.653769	 0.429126	 0.517200 
Dy52	 0.566396	 0.452537	 0.982800 
Dy53	 0.600203	 0.314069	 0.482800 
Sc54	 0.419888	 0.297680	 0.000000 
Sc55	 0.332515	 0.321091	 0.500000 
Sc56	 0.452241	 0.418421	 0.000000 
Sc57	 0.364868	 0.441832	 0.500000 
Dy58	 0.512830	 0.337481	 0.017200 
Dy59	 0.479024	 0.475949	 0.517200 
Dy60	 0.391651	 0.499360	 0.982800 
Dy61	 0.425457	 0.360892	 0.482800 
Sc62	 0.245143	 0.344503	 0.000000 
Sc63	 0.157770	 0.367914	 0.500000 
Sc64	 0.277495	 0.465243	 0.000000 
Sc65	 0.190122	 0.488655	 0.500000 
Dy66	 0.338085	 0.384304	 0.017200 
Dy67	 0.304278	 0.522772	 0.517200 
Dy68	 0.216906	 0.546183	 0.982800 
Dy69	 0.250712	 0.407715	 0.482800 
Sc70	 0.070397	 0.391326	 0.000000 
Sc71	 0.856752	 0.180623	 0.500000 
Sc72	 0.102750	 0.512066	 0.000000 
Sc73	 0.889104	 0.301363	 0.500000 
Dy74	 0.163339	 0.431127	 0.017200 
Dy75	 0.129533	 0.569595	 0.517200 
Dy76	 0.915887	 0.358892	 0.982800 
Dy77	 0.075967	 0.454538	 0.482800 
Sc78	 0.834084	 0.445515	 0.000000 
Sc79	 0.746711	 0.468927	 0.500000 
Sc80	 0.866436	 0.566256	 0.000000 
Sc81	 0.779063	 0.589668	 0.500000 
Dy82	 0.927026	 0.485317	 0.017200 
Dy83	 0.893219	 0.623784	 0.517200 
Dy84	 0.805847	 0.647196	 0.982800 
Dy85	 0.839653	 0.508728	 0.482800 
Sc86	 0.659338	 0.492338	 0.000000 
Sc87	 0.571966	 0.515750	 0.500000 
Sc88	 0.691691	 0.613079	 0.000000 
Sc89	 0.604318	 0.636491	 0.500000 
Dy90	 0.752280	 0.532139	 0.017200 
Dy91	 0.718474	 0.670607	 0.517200 
Dy92	 0.631101	 0.694019	 0.982800 
Dy93	 0.664907	 0.555551	 0.482800 
Sc94	 0.484593	 0.539161	 0.000000 
Sc95	 0.397220	 0.562573	 0.500000 
Sc96	 0.516945	 0.659902	 0.000000 
Sc97	 0.429573	 0.683313	 0.500000 
Dy98	 0.577535	 0.578962	 0.017200 
Dy99	 0.543729	 0.717430	 0.517200 
Dy100	 0.456356	 0.740842	 0.982800 
Dy101	 0.490162	 0.602374	 0.482800 
Sc102	 0.309848	 0.585984	 0.000000 
Sc103	 0.222475	 0.609396	 0.500000 
Sc104	 0.342200	 0.706725	 0.000000 
Sc105	 0.254827	 0.730136	 0.500000 
Dy106	 0.402789	 0.625785	 0.017200 
Dy107	 0.368983	 0.764253	 0.517200 
Dy108	 0.281610	 0.787665	 0.982800 
Dy109	 0.315417	 0.649197	 0.482800 
Sc110	 0.135102	 0.632807	 0.000000 
Sc111	 0.921456	 0.422104	 0.500000 
Sc112	 0.167455	 0.753548	 0.000000 
Sc113	 0.953809	 0.542845	 0.500000 
Dy114	 0.228044	 0.672608	 0.017200 
Dy115	 0.194238	 0.811076	 0.517200 
Dy116	 0.980592	 0.600373	 0.982800 
Dy117	 0.140671	 0.696020	 0.482800 
Sc118	 0.898788	 0.686997	 0.000000 
Sc119	 0.811416	 0.710408	 0.500000 
Sc120	 0.931141	 0.807738	 0.000000 
Sc121	 0.843768	 0.831149	 0.500000 
Dy122	 0.991730	 0.726798	 0.017200 
Dy123	 0.957924	 0.865266	 0.517200 
Dy124	 0.870551	 0.888677	 0.982800 
Dy125	 0.904358	 0.750209	 0.482800 
Sc126	 0.724043	 0.733820	 0.000000 
Sc127	 0.636670	 0.757231	 0.500000 
Sc128	 0.756395	 0.854561	 0.000000 
Sc129	 0.669023	 0.877972	 0.500000 
Dy130	 0.816985	 0.773621	 0.017200 
Dy131	 0.783179	 0.912089	 0.517200 
Dy132	 0.695806	 0.935500	 0.982800 
Dy133	 0.729612	 0.797032	 0.482800 
Sc134	 0.549298	 0.780643	 0.000000 
Sc135	 0.461925	 0.804054	 0.500000 
Sc136	 0.581650	 0.901383	 0.000000 
Sc137	 0.494277	 0.924795	 0.500000 
Dy138	 0.642240	 0.820444	 0.017200 
Dy139	 0.608433	 0.958912	 0.517200 
Dy140	 0.521061	 0.982323	 0.982800 
Dy141	 0.554867	 0.843855	 0.482800 
Sc142	 0.374552	 0.827466	 0.000000 
Sc143	 0.287180	 0.850877	 0.500000 
Sc144	 0.406905	 0.948206	 0.000000 
Sc145	 0.319532	 0.971618	 0.500000 
Dy146	 0.467494	 0.867267	 0.017200 
Dy147	 0.380121	 0.890678	 0.482800 
Sc148	 0.199807	 0.874289	 0.000000 
Sc149	 0.986161	 0.663586	 0.500000 
Sc150	 0.232159	 0.995029	 0.000000 
Dy151	 0.292749	 0.914090	 0.017200 
Dy152	 0.205376	 0.937501	 0.482800 
#                 ---end-of-data-block---
