data_C:\Users\admin\Documents\atomsegmentation_bupt_fullsuite_3\misc\13092.cif
_cell_length_a               31.652800
_cell_length_b               31.652800
_cell_length_c               5.449400
_cell_angle_alpha          90.000000
_cell_angle_beta           90.000000
_cell_angle_gamma          90.000000
_symmetry_cell_setting          Triclinic
_symmetry_space_group_name_H-M 'P 1' 
loop_
_atom_site_label
_atom_site_fract_x
_atom_site_fract_y
_atom_site_fract_z
Sc1	 0.655680	 0.092732	 0.000000 
Sc2	 0.568307	 0.116143	 0.500000 
Dy3	 0.716269	 0.011792	 0.017200 
Dy4	 0.682463	 0.150260	 0.517200 
Dy5	 0.595090	 0.173671	 0.982800 
Dy6	 0.628896	 0.035203	 0.482800 
Sc7	 0.448582	 0.018814	 0.000000 
Sc8	 0.361209	 0.042225	 0.500000 
Sc9	 0.480934	 0.139554	 0.000000 
Sc10	 0.393561	 0.162966	 0.500000 
Dy11	 0.541524	 0.058615	 0.017200 
Dy12	 0.507717	 0.197083	 0.517200 
Dy13	 0.420345	 0.220494	 0.982800 
Dy14	 0.454151	 0.082026	 0.482800 
Sc15	 0.273836	 0.065637	 0.000000 
Sc16	 0.186464	 0.089048	 0.500000 
Sc17	 0.306189	 0.186377	 0.000000 
Sc18	 0.218816	 0.209789	 0.500000 
Dy19	 0.366778	 0.105438	 0.017200 
Dy20	 0.332972	 0.243906	 0.517200 
Dy21	 0.245599	 0.267317	 0.982800 
Dy22	 0.279405	 0.128849	 0.482800 
Sc23	 0.099091	 0.112459	 0.000000 
Sc24	 0.011718	 0.135871	 0.500000 
Sc25	 0.131443	 0.233200	 0.000000 
Sc26	 0.044071	 0.256612	 0.500000 
Dy27	 0.192033	 0.152261	 0.017200 
Dy28	 0.158227	 0.290728	 0.517200 
Dy29	 0.070854	 0.314140	 0.982800 
Dy30	 0.104660	 0.175672	 0.482800 
Sc31	 0.830425	 0.045909	 0.000000 
Sc32	 0.743052	 0.069320	 0.500000 
Dy33	 0.017287	 0.199083	 0.017200 
Dy34	 0.857208	 0.103437	 0.517200 
Dy35	 0.769835	 0.126848	 0.982800 
Sc36	 0.688032	 0.213472	 0.000000 
Sc37	 0.600659	 0.236884	 0.500000 
Sc38	 0.720384	 0.334213	 0.000000 
Sc39	 0.633012	 0.357624	 0.500000 
Dy40	 0.780974	 0.253273	 0.017200 
Dy41	 0.747168	 0.391741	 0.517200 
Dy42	 0.659795	 0.415153	 0.982800 
Dy43	 0.693601	 0.276685	 0.482800 
Sc44	 0.513287	 0.260295	 0.000000 
Sc45	 0.425914	 0.283707	 0.500000 
Sc46	 0.545639	 0.381036	 0.000000 
Sc47	 0.458266	 0.404447	 0.500000 
Dy48	 0.606228	 0.300096	 0.017200 
Dy49	 0.572422	 0.438564	 0.517200 
Dy50	 0.485049	 0.461976	 0.982800 
Dy51	 0.518856	 0.323508	 0.482800 
Sc52	 0.338541	 0.307118	 0.000000 
Sc53	 0.251168	 0.330529	 0.500000 
Sc54	 0.370893	 0.427859	 0.000000 
Sc55	 0.283521	 0.451270	 0.500000 
Dy56	 0.431483	 0.346919	 0.017200 
Dy57	 0.397677	 0.485387	 0.517200 
Dy58	 0.310304	 0.508798	 0.982800 
Dy59	 0.344110	 0.370331	 0.482800 
Sc60	 0.163796	 0.353941	 0.000000 
Sc61	 0.076423	 0.377352	 0.500000 
Sc62	 0.196148	 0.474682	 0.000000 
Sc63	 0.108775	 0.498093	 0.500000 
Dy64	 0.256738	 0.393742	 0.017200 
Dy65	 0.222931	 0.532210	 0.517200 
Dy66	 0.135559	 0.555621	 0.982800 
Dy67	 0.169365	 0.417153	 0.482800 
Sc68	 0.862777	 0.166649	 0.000000 
Sc69	 0.775405	 0.190061	 0.500000 
Sc70	 0.895130	 0.287390	 0.000000 
Sc71	 0.807757	 0.310802	 0.500000 
Dy72	 0.081992	 0.440565	 0.017200 
Dy73	 0.921913	 0.344918	 0.517200 
Dy74	 0.834540	 0.368330	 0.982800 
Dy75	 0.868346	 0.229862	 0.482800 
Sc76	 0.752737	 0.454954	 0.000000 
Sc77	 0.665364	 0.478365	 0.500000 
Sc78	 0.785089	 0.575694	 0.000000 
Sc79	 0.697716	 0.599106	 0.500000 
Dy80	 0.845679	 0.494755	 0.017200 
Dy81	 0.811872	 0.633223	 0.517200 
Dy82	 0.724500	 0.656634	 0.982800 
Dy83	 0.758306	 0.518166	 0.482800 
Sc84	 0.577991	 0.501777	 0.000000 
Sc85	 0.490619	 0.525188	 0.500000 
Sc86	 0.610344	 0.622517	 0.000000 
Sc87	 0.522971	 0.645929	 0.500000 
Dy88	 0.670933	 0.541578	 0.017200 
Dy89	 0.637127	 0.680046	 0.517200 
Dy90	 0.549754	 0.703457	 0.982800 
Dy91	 0.583560	 0.564989	 0.482800 
Sc92	 0.403246	 0.548600	 0.000000 
Sc93	 0.315873	 0.572011	 0.500000 
Sc94	 0.435598	 0.669340	 0.000000 
Sc95	 0.348226	 0.692752	 0.500000 
Dy96	 0.496188	 0.588401	 0.017200 
Dy97	 0.462381	 0.726868	 0.517200 
Dy98	 0.375009	 0.750280	 0.982800 
Dy99	 0.408815	 0.611812	 0.482800 
Sc100	 0.228500	 0.595422	 0.000000 
Sc101	 0.141128	 0.618834	 0.500000 
Sc102	 0.260853	 0.716163	 0.000000 
Sc103	 0.173480	 0.739575	 0.500000 
Dy104	 0.321442	 0.635223	 0.017200 
Dy105	 0.287636	 0.773691	 0.517200 
Dy106	 0.200263	 0.797103	 0.982800 
Dy107	 0.234070	 0.658635	 0.482800 
Sc108	 0.927482	 0.408131	 0.000000 
Sc109	 0.840109	 0.431542	 0.500000 
Sc110	 0.959834	 0.528872	 0.000000 
Sc111	 0.872462	 0.552283	 0.500000 
Dy112	 0.146697	 0.682046	 0.017200 
Dy113	 0.986618	 0.586400	 0.517200 
Dy114	 0.899245	 0.609811	 0.982800 
Dy115	 0.933051	 0.471343	 0.482800 
Sc116	 0.817441	 0.696435	 0.000000 
Sc117	 0.730069	 0.719847	 0.500000 
Sc118	 0.849794	 0.817176	 0.000000 
Sc119	 0.762421	 0.840587	 0.500000 
Dy120	 0.910383	 0.736236	 0.017200 
Dy121	 0.876577	 0.874704	 0.517200 
Dy122	 0.789204	 0.898116	 0.982800 
Dy123	 0.823011	 0.759648	 0.482800 
Sc124	 0.642696	 0.743258	 0.000000 
Sc125	 0.555323	 0.766670	 0.500000 
Sc126	 0.675048	 0.863999	 0.000000 
Sc127	 0.587676	 0.887410	 0.500000 
Dy128	 0.735638	 0.783059	 0.017200 
Dy129	 0.701832	 0.921527	 0.517200 
Dy130	 0.614459	 0.944938	 0.982800 
Dy131	 0.648265	 0.806471	 0.482800 
Sc132	 0.467951	 0.790081	 0.000000 
Sc133	 0.380578	 0.813492	 0.500000 
Sc134	 0.500303	 0.910822	 0.000000 
Sc135	 0.412930	 0.934233	 0.500000 
Dy136	 0.560892	 0.829882	 0.017200 
Dy137	 0.527086	 0.968350	 0.517200 
Dy138	 0.439714	 0.991761	 0.982800 
Dy139	 0.473520	 0.853293	 0.482800 
Sc140	 0.293205	 0.836904	 0.000000 
Sc141	 0.205833	 0.860315	 0.500000 
Sc142	 0.325558	 0.957645	 0.000000 
Sc143	 0.238185	 0.981056	 0.500000 
Dy144	 0.386147	 0.876705	 0.017200 
Dy145	 0.298774	 0.900116	 0.482800 
Sc146	 0.992187	 0.649612	 0.000000 
Sc147	 0.904814	 0.673024	 0.500000 
Sc148	 0.937167	 0.793764	 0.500000 
Dy149	 0.211402	 0.923528	 0.017200 
Dy150	 0.963950	 0.851293	 0.982800 
Dy151	 0.997756	 0.712825	 0.482800 
#                 ---end-of-data-block---
