data_C:\Users\admin\Documents\atomsegmentation_bupt_fullsuite_3\misc\13093.cif
_cell_length_a               31.652800
_cell_length_b               31.652800
_cell_length_c               5.449400
_cell_angle_alpha          90.000000
_cell_angle_beta           90.000000
_cell_angle_gamma          90.000000
_symmetry_cell_setting          Triclinic
_symmetry_space_group_name_H-M 'P 1' 
loop_
_atom_site_label
_atom_site_fract_x
_atom_site_fract_y
_atom_site_fract_z
Sc1	 0.504232	 0.003466	 0.500000 
Sc2	 0.623958	 0.100795	 0.000000 
Sc3	 0.536585	 0.124207	 0.500000 
Dy4	 0.684547	 0.019856	 0.017200 
Dy5	 0.650741	 0.158324	 0.517200 
Dy6	 0.563368	 0.181735	 0.982800 
Dy7	 0.597174	 0.043267	 0.482800 
Sc8	 0.416860	 0.026878	 0.000000 
Sc9	 0.329487	 0.050289	 0.500000 
Sc10	 0.449212	 0.147618	 0.000000 
Sc11	 0.361839	 0.171030	 0.500000 
Dy12	 0.509802	 0.066679	 0.017200 
Dy13	 0.475995	 0.205146	 0.517200 
Dy14	 0.388623	 0.228558	 0.982800 
Dy15	 0.422429	 0.090090	 0.482800 
Sc16	 0.242114	 0.073700	 0.000000 
Sc17	 0.154742	 0.097112	 0.500000 
Sc18	 0.274467	 0.194441	 0.000000 
Sc19	 0.187094	 0.217853	 0.500000 
Dy20	 0.335056	 0.113501	 0.017200 
Dy21	 0.301250	 0.251969	 0.517200 
Dy22	 0.213877	 0.275381	 0.982800 
Dy23	 0.247684	 0.136913	 0.482800 
Sc24	 0.067369	 0.120523	 0.000000 
Sc25	 0.099721	 0.241264	 0.000000 
Sc26	 0.012349	 0.264675	 0.500000 
Dy27	 0.160311	 0.160324	 0.017200 
Dy28	 0.126505	 0.298792	 0.517200 
Dy29	 0.039132	 0.322204	 0.982800 
Dy30	 0.072938	 0.183736	 0.482800 
Sc31	 0.798703	 0.053972	 0.000000 
Sc32	 0.711330	 0.077384	 0.500000 
Dy33	 0.825486	 0.111501	 0.517200 
Dy34	 0.738113	 0.134912	 0.982800 
Sc35	 0.656310	 0.221536	 0.000000 
Sc36	 0.568937	 0.244948	 0.500000 
Sc37	 0.688662	 0.342277	 0.000000 
Sc38	 0.601290	 0.365688	 0.500000 
Dy39	 0.749252	 0.261337	 0.017200 
Dy40	 0.715446	 0.399805	 0.517200 
Dy41	 0.628073	 0.423216	 0.982800 
Dy42	 0.661879	 0.284749	 0.482800 
Sc43	 0.481565	 0.268359	 0.000000 
Sc44	 0.394192	 0.291770	 0.500000 
Sc45	 0.513917	 0.389100	 0.000000 
Sc46	 0.426544	 0.412511	 0.500000 
Dy47	 0.574506	 0.308160	 0.017200 
Dy48	 0.540700	 0.446628	 0.517200 
Dy49	 0.453327	 0.470039	 0.982800 
Dy50	 0.487134	 0.331571	 0.482800 
Sc51	 0.306819	 0.315182	 0.000000 
Sc52	 0.219446	 0.338593	 0.500000 
Sc53	 0.339172	 0.435923	 0.000000 
Sc54	 0.251799	 0.459334	 0.500000 
Dy55	 0.399761	 0.354983	 0.017200 
Dy56	 0.365955	 0.493451	 0.517200 
Dy57	 0.278582	 0.516862	 0.982800 
Dy58	 0.312388	 0.378394	 0.482800 
Sc59	 0.132074	 0.362005	 0.000000 
Sc60	 0.044701	 0.385416	 0.500000 
Sc61	 0.164426	 0.482745	 0.000000 
Sc62	 0.077053	 0.506157	 0.500000 
Dy63	 0.225016	 0.401806	 0.017200 
Dy64	 0.191209	 0.540274	 0.517200 
Dy65	 0.103837	 0.563685	 0.982800 
Dy66	 0.137643	 0.425217	 0.482800 
Sc67	 0.831055	 0.174713	 0.000000 
Sc68	 0.743683	 0.198125	 0.500000 
Sc69	 0.863408	 0.295454	 0.000000 
Sc70	 0.776035	 0.318865	 0.500000 
Dy71	 0.050270	 0.448629	 0.017200 
Dy72	 0.890191	 0.352982	 0.517200 
Dy73	 0.802818	 0.376394	 0.982800 
Dy74	 0.836624	 0.237926	 0.482800 
Sc75	 0.721015	 0.463018	 0.000000 
Sc76	 0.633642	 0.486429	 0.500000 
Sc77	 0.753367	 0.583758	 0.000000 
Sc78	 0.665994	 0.607170	 0.500000 
Dy79	 0.813957	 0.502819	 0.017200 
Dy80	 0.780150	 0.641286	 0.517200 
Dy81	 0.692778	 0.664698	 0.982800 
Dy82	 0.726584	 0.526230	 0.482800 
Sc83	 0.546269	 0.509840	 0.000000 
Sc84	 0.458897	 0.533252	 0.500000 
Sc85	 0.578622	 0.630581	 0.000000 
Sc86	 0.491249	 0.653993	 0.500000 
Dy87	 0.639211	 0.549642	 0.017200 
Dy88	 0.605405	 0.688109	 0.517200 
Dy89	 0.518032	 0.711521	 0.982800 
Dy90	 0.551838	 0.573053	 0.482800 
Sc91	 0.371524	 0.556663	 0.000000 
Sc92	 0.284151	 0.580075	 0.500000 
Sc93	 0.403876	 0.677404	 0.000000 
Sc94	 0.316504	 0.700815	 0.500000 
Dy95	 0.464466	 0.596464	 0.017200 
Dy96	 0.430660	 0.734932	 0.517200 
Dy97	 0.343287	 0.758344	 0.982800 
Dy98	 0.377093	 0.619876	 0.482800 
Sc99	 0.196779	 0.603486	 0.000000 
Sc100	 0.109406	 0.626898	 0.500000 
Sc101	 0.229131	 0.724227	 0.000000 
Sc102	 0.141758	 0.747638	 0.500000 
Dy103	 0.289720	 0.643287	 0.017200 
Dy104	 0.255914	 0.781755	 0.517200 
Dy105	 0.168541	 0.805167	 0.982800 
Dy106	 0.202348	 0.666699	 0.482800 
Sc107	 0.895760	 0.416195	 0.000000 
Sc108	 0.808387	 0.439606	 0.500000 
Sc109	 0.928112	 0.536935	 0.000000 
Sc110	 0.840740	 0.560347	 0.500000 
Dy111	 0.114975	 0.690110	 0.017200 
Dy112	 0.954896	 0.594464	 0.517200 
Dy113	 0.867523	 0.617875	 0.982800 
Dy114	 0.901329	 0.479407	 0.482800 
Sc115	 0.785719	 0.704499	 0.000000 
Sc116	 0.698347	 0.727910	 0.500000 
Sc117	 0.818072	 0.825240	 0.000000 
Sc118	 0.730699	 0.848651	 0.500000 
Dy119	 0.878661	 0.744300	 0.017200 
Dy120	 0.844855	 0.882768	 0.517200 
Dy121	 0.757482	 0.906179	 0.982800 
Dy122	 0.791289	 0.767712	 0.482800 
Sc123	 0.610974	 0.751322	 0.000000 
Sc124	 0.523601	 0.774733	 0.500000 
Sc125	 0.643326	 0.872063	 0.000000 
Sc126	 0.555954	 0.895474	 0.500000 
Dy127	 0.703916	 0.791123	 0.017200 
Dy128	 0.670110	 0.929591	 0.517200 
Dy129	 0.582737	 0.953002	 0.982800 
Dy130	 0.616543	 0.814534	 0.482800 
Sc131	 0.436229	 0.798145	 0.000000 
Sc132	 0.348856	 0.821556	 0.500000 
Sc133	 0.468581	 0.918886	 0.000000 
Sc134	 0.381208	 0.942297	 0.500000 
Dy135	 0.529171	 0.837946	 0.017200 
Dy136	 0.495364	 0.976414	 0.517200 
Dy137	 0.407992	 0.999825	 0.982800 
Dy138	 0.441798	 0.861357	 0.482800 
Sc139	 0.261483	 0.844968	 0.000000 
Sc140	 0.174111	 0.868379	 0.500000 
Sc141	 0.293836	 0.965708	 0.000000 
Sc142	 0.206463	 0.989120	 0.500000 
Dy143	 0.354425	 0.884769	 0.017200 
Dy144	 0.267052	 0.908180	 0.482800 
Sc145	 0.960465	 0.657676	 0.000000 
Sc146	 0.873092	 0.681088	 0.500000 
Sc147	 0.992817	 0.778417	 0.000000 
Sc148	 0.905445	 0.801828	 0.500000 
Dy149	 0.179680	 0.931592	 0.017200 
Dy150	 0.932228	 0.859357	 0.982800 
Dy151	 0.966034	 0.720889	 0.482800 
#                 ---end-of-data-block---
