data_Single Layer of MoS2nx 10 ny 6 nz 1
_cell_length_a               32.423991
_cell_length_b               32.423991
_cell_length_c               3.080000
_cell_angle_alpha          90.000000
_cell_angle_beta           90.000000
_cell_angle_gamma          90.000000
_symmetry_cell_setting          Triclinic
_symmetry_space_group_name_H-M 'P 1' 
loop_
_atom_site_label
_atom_site_fract_x
_atom_site_fract_y
_atom_site_fract_z
Mo1	 0.116473	 0.079388	 0.500000 
Mo2	 0.184514	 0.011346	 0.500000 
S3	 0.170136	 0.065009	 1.000000 
S4	 0.170136	 0.065009	 0.000000 
S5	 0.102094	 0.133050	 1.000000 
S6	 0.102094	 0.133050	 0.000000 
Mo7	 0.073336	 0.240375	 0.500000 
Mo8	 0.141378	 0.172334	 0.500000 
S9	 0.126999	 0.225996	 1.000000 
S10	 0.126999	 0.225996	 0.000000 
S11	 0.058958	 0.294038	 1.000000 
S12	 0.058958	 0.294038	 0.000000 
Mo13	 0.030200	 0.401363	 0.500000 
Mo14	 0.098241	 0.333322	 0.500000 
S15	 0.083863	 0.386984	 1.000000 
S16	 0.083863	 0.386984	 0.000000 
S17	 0.015821	 0.455025	 1.000000 
S18	 0.015821	 0.455025	 0.000000 
Mo19	 0.055105	 0.494309	 0.500000 
S20	 0.040726	 0.547972	 1.000000 
S21	 0.040726	 0.547972	 0.000000 
Mo22	 0.011968	 0.655297	 0.500000 
Mo23	 0.209419	 0.104292	 0.500000 
Mo24	 0.277461	 0.036251	 0.500000 
S25	 0.263082	 0.089914	 1.000000 
S26	 0.263082	 0.089914	 0.000000 
S27	 0.195040	 0.157955	 1.000000 
S28	 0.195040	 0.157955	 0.000000 
Mo29	 0.166283	 0.265280	 0.500000 
Mo30	 0.234324	 0.197239	 0.500000 
S31	 0.219945	 0.250901	 1.000000 
S32	 0.219945	 0.250901	 0.000000 
S33	 0.151904	 0.318943	 1.000000 
S34	 0.151904	 0.318943	 0.000000 
Mo35	 0.123146	 0.426268	 0.500000 
Mo36	 0.191188	 0.358226	 0.500000 
S37	 0.176809	 0.411889	 1.000000 
S38	 0.176809	 0.411889	 0.000000 
S39	 0.108767	 0.479930	 1.000000 
S40	 0.108767	 0.479930	 0.000000 
Mo41	 0.080010	 0.587255	 0.500000 
Mo42	 0.148051	 0.519214	 0.500000 
S43	 0.133672	 0.572877	 1.000000 
S44	 0.133672	 0.572877	 0.000000 
S45	 0.065631	 0.640918	 1.000000 
S46	 0.065631	 0.640918	 0.000000 
Mo47	 0.036873	 0.748243	 0.500000 
Mo48	 0.104915	 0.680202	 0.500000 
S49	 0.090536	 0.733864	 1.000000 
S50	 0.090536	 0.733864	 0.000000 
S51	 0.022494	 0.801906	 1.000000 
S52	 0.022494	 0.801906	 0.000000 
Mo53	 0.061778	 0.841189	 0.500000 
S54	 0.047399	 0.894852	 1.000000 
S55	 0.047399	 0.894852	 0.000000 
S56	 0.331123	 0.021872	 1.000000 
S57	 0.331123	 0.021872	 0.000000 
Mo58	 0.302365	 0.129197	 0.500000 
Mo59	 0.370407	 0.061156	 0.500000 
S60	 0.356028	 0.114819	 1.000000 
S61	 0.356028	 0.114819	 0.000000 
S62	 0.287987	 0.182860	 1.000000 
S63	 0.287987	 0.182860	 0.000000 
Mo64	 0.259229	 0.290185	 0.500000 
Mo65	 0.327270	 0.222144	 0.500000 
S66	 0.312892	 0.275806	 1.000000 
S67	 0.312892	 0.275806	 0.000000 
S68	 0.244850	 0.343848	 1.000000 
S69	 0.244850	 0.343848	 0.000000 
Mo70	 0.216092	 0.451173	 0.500000 
Mo71	 0.284134	 0.383131	 0.500000 
S72	 0.269755	 0.436794	 1.000000 
S73	 0.269755	 0.436794	 0.000000 
S74	 0.201714	 0.504835	 1.000000 
S75	 0.201714	 0.504835	 0.000000 
Mo76	 0.172956	 0.612160	 0.500000 
Mo77	 0.240997	 0.544119	 0.500000 
S78	 0.226619	 0.597781	 1.000000 
S79	 0.226619	 0.597781	 0.000000 
S80	 0.158577	 0.665823	 1.000000 
S81	 0.158577	 0.665823	 0.000000 
Mo82	 0.129819	 0.773148	 0.500000 
Mo83	 0.197861	 0.705107	 0.500000 
S84	 0.183482	 0.758769	 1.000000 
S85	 0.183482	 0.758769	 0.000000 
S86	 0.115441	 0.826810	 1.000000 
S87	 0.115441	 0.826810	 0.000000 
Mo88	 0.154724	 0.866094	 0.500000 
S89	 0.140345	 0.919757	 1.000000 
S90	 0.140345	 0.919757	 0.000000 
S91	 0.424069	 0.046777	 1.000000 
S92	 0.424069	 0.046777	 0.000000 
Mo93	 0.395312	 0.154102	 0.500000 
Mo94	 0.463353	 0.086061	 0.500000 
S95	 0.448974	 0.139723	 1.000000 
S96	 0.448974	 0.139723	 0.000000 
S97	 0.380933	 0.207765	 1.000000 
S98	 0.380933	 0.207765	 0.000000 
Mo99	 0.352175	 0.315090	 0.500000 
Mo100	 0.420217	 0.247048	 0.500000 
S101	 0.405838	 0.300711	 1.000000 
S102	 0.405838	 0.300711	 0.000000 
S103	 0.337796	 0.368752	 1.000000 
S104	 0.337796	 0.368752	 0.000000 
Mo105	 0.309039	 0.476078	 0.500000 
Mo106	 0.377080	 0.408036	 0.500000 
S107	 0.362701	 0.461699	 1.000000 
S108	 0.362701	 0.461699	 0.000000 
S109	 0.294660	 0.529740	 1.000000 
S110	 0.294660	 0.529740	 0.000000 
Mo111	 0.265902	 0.637065	 0.500000 
Mo112	 0.333944	 0.569024	 0.500000 
S113	 0.319565	 0.622686	 1.000000 
S114	 0.319565	 0.622686	 0.000000 
S115	 0.251523	 0.690728	 1.000000 
S116	 0.251523	 0.690728	 0.000000 
Mo117	 0.222766	 0.798053	 0.500000 
Mo118	 0.290807	 0.730011	 0.500000 
S119	 0.276428	 0.783674	 1.000000 
S120	 0.276428	 0.783674	 0.000000 
S121	 0.208387	 0.851715	 1.000000 
S122	 0.208387	 0.851715	 0.000000 
Mo123	 0.247671	 0.890999	 0.500000 
S124	 0.233292	 0.944662	 1.000000 
S125	 0.233292	 0.944662	 0.000000 
S126	 0.517016	 0.071682	 1.000000 
S127	 0.517016	 0.071682	 0.000000 
Mo128	 0.488258	 0.179007	 0.500000 
Mo129	 0.556299	 0.110966	 0.500000 
S130	 0.541921	 0.164628	 1.000000 
S131	 0.541921	 0.164628	 0.000000 
S132	 0.473879	 0.232670	 1.000000 
S133	 0.473879	 0.232670	 0.000000 
Mo134	 0.445121	 0.339995	 0.500000 
Mo135	 0.513163	 0.271953	 0.500000 
S136	 0.498784	 0.325616	 1.000000 
S137	 0.498784	 0.325616	 0.000000 
S138	 0.430743	 0.393657	 1.000000 
S139	 0.430743	 0.393657	 0.000000 
Mo140	 0.401985	 0.500982	 0.500000 
Mo141	 0.470026	 0.432941	 0.500000 
S142	 0.455648	 0.486604	 1.000000 
S143	 0.455648	 0.486604	 0.000000 
S144	 0.387606	 0.554645	 1.000000 
S145	 0.387606	 0.554645	 0.000000 
Mo146	 0.358848	 0.661970	 0.500000 
Mo147	 0.426890	 0.593929	 0.500000 
S148	 0.412511	 0.647591	 1.000000 
S149	 0.412511	 0.647591	 0.000000 
S150	 0.344470	 0.715633	 1.000000 
S151	 0.344470	 0.715633	 0.000000 
Mo152	 0.315712	 0.822958	 0.500000 
Mo153	 0.383753	 0.754916	 0.500000 
S154	 0.369375	 0.808579	 1.000000 
S155	 0.369375	 0.808579	 0.000000 
S156	 0.301333	 0.876620	 1.000000 
S157	 0.301333	 0.876620	 0.000000 
Mo158	 0.531395	 0.018019	 0.500000 
Mo159	 0.340617	 0.915904	 0.500000 
S160	 0.326238	 0.969566	 1.000000 
S161	 0.326238	 0.969566	 0.000000 
S162	 0.609962	 0.096587	 1.000000 
S163	 0.609962	 0.096587	 0.000000 
Mo164	 0.581204	 0.203912	 0.500000 
Mo165	 0.649246	 0.135871	 0.500000 
S166	 0.634867	 0.189533	 1.000000 
S167	 0.634867	 0.189533	 0.000000 
S168	 0.566825	 0.257575	 1.000000 
S169	 0.566825	 0.257575	 0.000000 
Mo170	 0.538068	 0.364900	 0.500000 
Mo171	 0.606109	 0.296858	 0.500000 
S172	 0.591730	 0.350521	 1.000000 
S173	 0.591730	 0.350521	 0.000000 
S174	 0.523689	 0.418562	 1.000000 
S175	 0.523689	 0.418562	 0.000000 
Mo176	 0.494931	 0.525887	 0.500000 
Mo177	 0.562973	 0.457846	 0.500000 
S178	 0.548594	 0.511508	 1.000000 
S179	 0.548594	 0.511508	 0.000000 
S180	 0.480552	 0.579550	 1.000000 
S181	 0.480552	 0.579550	 0.000000 
Mo182	 0.451795	 0.686875	 0.500000 
Mo183	 0.519836	 0.618834	 0.500000 
S184	 0.505457	 0.672496	 1.000000 
S185	 0.505457	 0.672496	 0.000000 
S186	 0.437416	 0.740537	 1.000000 
S187	 0.437416	 0.740537	 0.000000 
Mo188	 0.408658	 0.847863	 0.500000 
Mo189	 0.476700	 0.779821	 0.500000 
S190	 0.462321	 0.833484	 1.000000 
S191	 0.462321	 0.833484	 0.000000 
S192	 0.394279	 0.901525	 1.000000 
S193	 0.394279	 0.901525	 0.000000 
Mo194	 0.624341	 0.042924	 0.500000 
Mo195	 0.433563	 0.940809	 0.500000 
S196	 0.419184	 0.994471	 1.000000 
S197	 0.419184	 0.994471	 0.000000 
S198	 0.702908	 0.121492	 1.000000 
S199	 0.702908	 0.121492	 0.000000 
Mo200	 0.674151	 0.228817	 0.500000 
Mo201	 0.742192	 0.160775	 0.500000 
S202	 0.727813	 0.214438	 1.000000 
S203	 0.727813	 0.214438	 0.000000 
S204	 0.659772	 0.282479	 1.000000 
S205	 0.659772	 0.282479	 0.000000 
Mo206	 0.631014	 0.389804	 0.500000 
Mo207	 0.699055	 0.321763	 0.500000 
S208	 0.684677	 0.375426	 1.000000 
S209	 0.684677	 0.375426	 0.000000 
S210	 0.616635	 0.443467	 1.000000 
S211	 0.616635	 0.443467	 0.000000 
Mo212	 0.587877	 0.550792	 0.500000 
Mo213	 0.655919	 0.482751	 0.500000 
S214	 0.641540	 0.536413	 1.000000 
S215	 0.641540	 0.536413	 0.000000 
S216	 0.573499	 0.604455	 1.000000 
S217	 0.573499	 0.604455	 0.000000 
Mo218	 0.544741	 0.711780	 0.500000 
Mo219	 0.612782	 0.643738	 0.500000 
S220	 0.598404	 0.697401	 1.000000 
S221	 0.598404	 0.697401	 0.000000 
S222	 0.530362	 0.765442	 1.000000 
S223	 0.530362	 0.765442	 0.000000 
Mo224	 0.501604	 0.872767	 0.500000 
Mo225	 0.569646	 0.804726	 0.500000 
S226	 0.555267	 0.858389	 1.000000 
S227	 0.555267	 0.858389	 0.000000 
S228	 0.487226	 0.926430	 1.000000 
S229	 0.487226	 0.926430	 0.000000 
Mo230	 0.717287	 0.067829	 0.500000 
Mo231	 0.526509	 0.965714	 0.500000 
S232	 0.795854	 0.146397	 1.000000 
S233	 0.795854	 0.146397	 0.000000 
Mo234	 0.767097	 0.253722	 0.500000 
Mo235	 0.835138	 0.185680	 0.500000 
S236	 0.820759	 0.239343	 1.000000 
S237	 0.820759	 0.239343	 0.000000 
S238	 0.752718	 0.307384	 1.000000 
S239	 0.752718	 0.307384	 0.000000 
Mo240	 0.723960	 0.414709	 0.500000 
Mo241	 0.792002	 0.346668	 0.500000 
S242	 0.777623	 0.400331	 1.000000 
S243	 0.777623	 0.400331	 0.000000 
S244	 0.709581	 0.468372	 1.000000 
S245	 0.709581	 0.468372	 0.000000 
Mo246	 0.680824	 0.575697	 0.500000 
Mo247	 0.748865	 0.507656	 0.500000 
S248	 0.734486	 0.561318	 1.000000 
S249	 0.734486	 0.561318	 0.000000 
S250	 0.666445	 0.629360	 1.000000 
S251	 0.666445	 0.629360	 0.000000 
Mo252	 0.637687	 0.736685	 0.500000 
Mo253	 0.705729	 0.668643	 0.500000 
S254	 0.691350	 0.722306	 1.000000 
S255	 0.691350	 0.722306	 0.000000 
S256	 0.623308	 0.790347	 1.000000 
S257	 0.623308	 0.790347	 0.000000 
Mo258	 0.594551	 0.897672	 0.500000 
Mo259	 0.662592	 0.829631	 0.500000 
S260	 0.648213	 0.883293	 1.000000 
S261	 0.648213	 0.883293	 0.000000 
S262	 0.580172	 0.951335	 1.000000 
S263	 0.580172	 0.951335	 0.000000 
Mo264	 0.810233	 0.092734	 0.500000 
Mo265	 0.619456	 0.990619	 0.500000 
S266	 0.888801	 0.171302	 1.000000 
S267	 0.888801	 0.171302	 0.000000 
Mo268	 0.860043	 0.278627	 0.500000 
Mo269	 0.928084	 0.210585	 0.500000 
S270	 0.913706	 0.264248	 1.000000 
S271	 0.913706	 0.264248	 0.000000 
S272	 0.845664	 0.332289	 1.000000 
S273	 0.845664	 0.332289	 0.000000 
Mo274	 0.816907	 0.439614	 0.500000 
Mo275	 0.884948	 0.371573	 0.500000 
S276	 0.870569	 0.425235	 1.000000 
S277	 0.870569	 0.425235	 0.000000 
S278	 0.802528	 0.493277	 1.000000 
S279	 0.802528	 0.493277	 0.000000 
Mo280	 0.773770	 0.600602	 0.500000 
Mo281	 0.841811	 0.532560	 0.500000 
S282	 0.827433	 0.586223	 1.000000 
S283	 0.827433	 0.586223	 0.000000 
S284	 0.759391	 0.654264	 1.000000 
S285	 0.759391	 0.654264	 0.000000 
Mo286	 0.730634	 0.761590	 0.500000 
Mo287	 0.798675	 0.693548	 0.500000 
S288	 0.784296	 0.747211	 1.000000 
S289	 0.784296	 0.747211	 0.000000 
S290	 0.716255	 0.815252	 1.000000 
S291	 0.716255	 0.815252	 0.000000 
Mo292	 0.687497	 0.922577	 0.500000 
Mo293	 0.755538	 0.854536	 0.500000 
S294	 0.741160	 0.908198	 1.000000 
S295	 0.741160	 0.908198	 0.000000 
S296	 0.673118	 0.976240	 1.000000 
S297	 0.673118	 0.976240	 0.000000 
Mo298	 0.903180	 0.117639	 0.500000 
S299	 0.981747	 0.196206	 1.000000 
S300	 0.981747	 0.196206	 0.000000 
Mo301	 0.952989	 0.303531	 0.500000 
S302	 0.938610	 0.357194	 1.000000 
S303	 0.938610	 0.357194	 0.000000 
Mo304	 0.909853	 0.464519	 0.500000 
Mo305	 0.977894	 0.396478	 0.500000 
S306	 0.963515	 0.450140	 1.000000 
S307	 0.963515	 0.450140	 0.000000 
S308	 0.895474	 0.518182	 1.000000 
S309	 0.895474	 0.518182	 0.000000 
Mo310	 0.866716	 0.625507	 0.500000 
Mo311	 0.934758	 0.557465	 0.500000 
S312	 0.920379	 0.611128	 1.000000 
S313	 0.920379	 0.611128	 0.000000 
S314	 0.852337	 0.679169	 1.000000 
S315	 0.852337	 0.679169	 0.000000 
Mo316	 0.823580	 0.786494	 0.500000 
Mo317	 0.891621	 0.718453	 0.500000 
S318	 0.877242	 0.772116	 1.000000 
S319	 0.877242	 0.772116	 0.000000 
S320	 0.809201	 0.840157	 1.000000 
S321	 0.809201	 0.840157	 0.000000 
Mo322	 0.780443	 0.947482	 0.500000 
Mo323	 0.848485	 0.879441	 0.500000 
S324	 0.834106	 0.933103	 1.000000 
S325	 0.834106	 0.933103	 0.000000 
Mo326	 0.996126	 0.142544	 0.500000 
#                 ---end-of-data-block---
