data_Single Layer of MoS2nx 10 ny 6 nz 1
_cell_length_a               32.423991
_cell_length_b               32.423991
_cell_length_c               3.080000
_cell_angle_alpha          90.000000
_cell_angle_beta           90.000000
_cell_angle_gamma          90.000000
_symmetry_cell_setting          Triclinic
_symmetry_space_group_name_H-M 'P 1' 
loop_
_atom_site_label
_atom_site_fract_x
_atom_site_fract_y
_atom_site_fract_z
Mo1	 0.155712	 0.099574	 0.500000 
Mo2	 0.223753	 0.031532	 0.500000 
S3	 0.209374	 0.085195	 1.000000 
S4	 0.209374	 0.085195	 0.000000 
S5	 0.141333	 0.153236	 1.000000 
S6	 0.141333	 0.153236	 0.000000 
Mo7	 0.112575	 0.260561	 0.500000 
Mo8	 0.180617	 0.192520	 0.500000 
S9	 0.166238	 0.246182	 1.000000 
S10	 0.166238	 0.246182	 0.000000 
S11	 0.098197	 0.314224	 1.000000 
S12	 0.098197	 0.314224	 0.000000 
Mo13	 0.069439	 0.421549	 0.500000 
Mo14	 0.137480	 0.353507	 0.500000 
S15	 0.123101	 0.407170	 1.000000 
S16	 0.123101	 0.407170	 0.000000 
S17	 0.055060	 0.475211	 1.000000 
S18	 0.055060	 0.475211	 0.000000 
Mo19	 0.026302	 0.582536	 0.500000 
Mo20	 0.094344	 0.514495	 0.500000 
S21	 0.079965	 0.568158	 1.000000 
S22	 0.079965	 0.568158	 0.000000 
S23	 0.011924	 0.636199	 1.000000 
S24	 0.011924	 0.636199	 0.000000 
Mo25	 0.051207	 0.675483	 0.500000 
S26	 0.036828	 0.729145	 1.000000 
S27	 0.036828	 0.729145	 0.000000 
Mo28	 0.008071	 0.836470	 0.500000 
S29	 0.277416	 0.017153	 1.000000 
S30	 0.277416	 0.017153	 0.000000 
Mo31	 0.248658	 0.124478	 0.500000 
Mo32	 0.316700	 0.056437	 0.500000 
S33	 0.302321	 0.110100	 1.000000 
S34	 0.302321	 0.110100	 0.000000 
S35	 0.234279	 0.178141	 1.000000 
S36	 0.234279	 0.178141	 0.000000 
Mo37	 0.205522	 0.285466	 0.500000 
Mo38	 0.273563	 0.217425	 0.500000 
S39	 0.259184	 0.271087	 1.000000 
S40	 0.259184	 0.271087	 0.000000 
S41	 0.191143	 0.339129	 1.000000 
S42	 0.191143	 0.339129	 0.000000 
Mo43	 0.162385	 0.446454	 0.500000 
Mo44	 0.230427	 0.378412	 0.500000 
S45	 0.216048	 0.432075	 1.000000 
S46	 0.216048	 0.432075	 0.000000 
S47	 0.148006	 0.500116	 1.000000 
S48	 0.148006	 0.500116	 0.000000 
Mo49	 0.119249	 0.607441	 0.500000 
Mo50	 0.187290	 0.539400	 0.500000 
S51	 0.172911	 0.593062	 1.000000 
S52	 0.172911	 0.593062	 0.000000 
S53	 0.104870	 0.661104	 1.000000 
S54	 0.104870	 0.661104	 0.000000 
Mo55	 0.076112	 0.768429	 0.500000 
Mo56	 0.144154	 0.700388	 0.500000 
S57	 0.129775	 0.754050	 1.000000 
S58	 0.129775	 0.754050	 0.000000 
S59	 0.061733	 0.822092	 1.000000 
S60	 0.061733	 0.822092	 0.000000 
Mo61	 0.101017	 0.861375	 0.500000 
S62	 0.370362	 0.042058	 1.000000 
S63	 0.370362	 0.042058	 0.000000 
Mo64	 0.341604	 0.149383	 0.500000 
Mo65	 0.409646	 0.081342	 0.500000 
S66	 0.395267	 0.135004	 1.000000 
S67	 0.395267	 0.135004	 0.000000 
S68	 0.327226	 0.203046	 1.000000 
S69	 0.327226	 0.203046	 0.000000 
Mo70	 0.298468	 0.310371	 0.500000 
Mo71	 0.366509	 0.242330	 0.500000 
S72	 0.352130	 0.295992	 1.000000 
S73	 0.352130	 0.295992	 0.000000 
S74	 0.284089	 0.364033	 1.000000 
S75	 0.284089	 0.364033	 0.000000 
Mo76	 0.255331	 0.471359	 0.500000 
Mo77	 0.323373	 0.403317	 0.500000 
S78	 0.308994	 0.456980	 1.000000 
S79	 0.308994	 0.456980	 0.000000 
S80	 0.240953	 0.525021	 1.000000 
S81	 0.240953	 0.525021	 0.000000 
Mo82	 0.212195	 0.632346	 0.500000 
Mo83	 0.280236	 0.564305	 0.500000 
S84	 0.265857	 0.617967	 1.000000 
S85	 0.265857	 0.617967	 0.000000 
S86	 0.197816	 0.686009	 1.000000 
S87	 0.197816	 0.686009	 0.000000 
Mo88	 0.169058	 0.793334	 0.500000 
Mo89	 0.237100	 0.725292	 0.500000 
S90	 0.222721	 0.778955	 1.000000 
S91	 0.222721	 0.778955	 0.000000 
S92	 0.154680	 0.846996	 1.000000 
S93	 0.154680	 0.846996	 0.000000 
Mo94	 0.193963	 0.886280	 0.500000 
S95	 0.463308	 0.066963	 1.000000 
S96	 0.463308	 0.066963	 0.000000 
Mo97	 0.434551	 0.174288	 0.500000 
Mo98	 0.502592	 0.106247	 0.500000 
S99	 0.488213	 0.159909	 1.000000 
S100	 0.488213	 0.159909	 0.000000 
S101	 0.420172	 0.227951	 1.000000 
S102	 0.420172	 0.227951	 0.000000 
Mo103	 0.391414	 0.335276	 0.500000 
Mo104	 0.459456	 0.267234	 0.500000 
S105	 0.445077	 0.320897	 1.000000 
S106	 0.445077	 0.320897	 0.000000 
S107	 0.377035	 0.388938	 1.000000 
S108	 0.377035	 0.388938	 0.000000 
Mo109	 0.348278	 0.496263	 0.500000 
Mo110	 0.416319	 0.428222	 0.500000 
S111	 0.401940	 0.481885	 1.000000 
S112	 0.401940	 0.481885	 0.000000 
S113	 0.333899	 0.549926	 1.000000 
S114	 0.333899	 0.549926	 0.000000 
Mo115	 0.305141	 0.657251	 0.500000 
Mo116	 0.373183	 0.589210	 0.500000 
S117	 0.358804	 0.642872	 1.000000 
S118	 0.358804	 0.642872	 0.000000 
S119	 0.290762	 0.710914	 1.000000 
S120	 0.290762	 0.710914	 0.000000 
Mo121	 0.262005	 0.818239	 0.500000 
Mo122	 0.330046	 0.750197	 0.500000 
S123	 0.315667	 0.803860	 1.000000 
S124	 0.315667	 0.803860	 0.000000 
S125	 0.247626	 0.871901	 1.000000 
S126	 0.247626	 0.871901	 0.000000 
Mo127	 0.477687	 0.013301	 0.500000 
Mo128	 0.286910	 0.911185	 0.500000 
S129	 0.556255	 0.091868	 1.000000 
S130	 0.556255	 0.091868	 0.000000 
Mo131	 0.527497	 0.199193	 0.500000 
Mo132	 0.595538	 0.131152	 0.500000 
S133	 0.581159	 0.184814	 1.000000 
S134	 0.581159	 0.184814	 0.000000 
S135	 0.513118	 0.252856	 1.000000 
S136	 0.513118	 0.252856	 0.000000 
Mo137	 0.484360	 0.360181	 0.500000 
Mo138	 0.552402	 0.292139	 0.500000 
S139	 0.538023	 0.345802	 1.000000 
S140	 0.538023	 0.345802	 0.000000 
S141	 0.469982	 0.413843	 1.000000 
S142	 0.469982	 0.413843	 0.000000 
Mo143	 0.441224	 0.521168	 0.500000 
Mo144	 0.509265	 0.453127	 0.500000 
S145	 0.494886	 0.506789	 1.000000 
S146	 0.494886	 0.506789	 0.000000 
S147	 0.426845	 0.574831	 1.000000 
S148	 0.426845	 0.574831	 0.000000 
Mo149	 0.398087	 0.682156	 0.500000 
Mo150	 0.466129	 0.614115	 0.500000 
S151	 0.451750	 0.667777	 1.000000 
S152	 0.451750	 0.667777	 0.000000 
S153	 0.383709	 0.735818	 1.000000 
S154	 0.383709	 0.735818	 0.000000 
Mo155	 0.354951	 0.843144	 0.500000 
Mo156	 0.422992	 0.775102	 0.500000 
S157	 0.408613	 0.828765	 1.000000 
S158	 0.408613	 0.828765	 0.000000 
S159	 0.340572	 0.896806	 1.000000 
S160	 0.340572	 0.896806	 0.000000 
Mo161	 0.570633	 0.038205	 0.500000 
Mo162	 0.379856	 0.936090	 0.500000 
S163	 0.624296	 0.023827	 1.000000 
S164	 0.624296	 0.023827	 0.000000 
S165	 0.649201	 0.116773	 1.000000 
S166	 0.649201	 0.116773	 0.000000 
Mo167	 0.620443	 0.224098	 0.500000 
Mo168	 0.688485	 0.156057	 0.500000 
S169	 0.674106	 0.209719	 1.000000 
S170	 0.674106	 0.209719	 0.000000 
S171	 0.606064	 0.277760	 1.000000 
S172	 0.606064	 0.277760	 0.000000 
Mo173	 0.577307	 0.385086	 0.500000 
Mo174	 0.645348	 0.317044	 0.500000 
S175	 0.630969	 0.370707	 1.000000 
S176	 0.630969	 0.370707	 0.000000 
S177	 0.562928	 0.438748	 1.000000 
S178	 0.562928	 0.438748	 0.000000 
Mo179	 0.534170	 0.546073	 0.500000 
Mo180	 0.602212	 0.478032	 0.500000 
S181	 0.587833	 0.531694	 1.000000 
S182	 0.587833	 0.531694	 0.000000 
S183	 0.519791	 0.599736	 1.000000 
S184	 0.519791	 0.599736	 0.000000 
Mo185	 0.491034	 0.707061	 0.500000 
Mo186	 0.559075	 0.639019	 0.500000 
S187	 0.544696	 0.692682	 1.000000 
S188	 0.544696	 0.692682	 0.000000 
S189	 0.476655	 0.760723	 1.000000 
S190	 0.476655	 0.760723	 0.000000 
Mo191	 0.447897	 0.868048	 0.500000 
Mo192	 0.515939	 0.800007	 0.500000 
S193	 0.501560	 0.853670	 1.000000 
S194	 0.501560	 0.853670	 0.000000 
S195	 0.433518	 0.921711	 1.000000 
S196	 0.433518	 0.921711	 0.000000 
Mo197	 0.663580	 0.063110	 0.500000 
Mo198	 0.472802	 0.960995	 0.500000 
S199	 0.717242	 0.048731	 1.000000 
S200	 0.717242	 0.048731	 0.000000 
S201	 0.742147	 0.141678	 1.000000 
S202	 0.742147	 0.141678	 0.000000 
Mo203	 0.713389	 0.249003	 0.500000 
Mo204	 0.781431	 0.180961	 0.500000 
S205	 0.767052	 0.234624	 1.000000 
S206	 0.767052	 0.234624	 0.000000 
S207	 0.699011	 0.302665	 1.000000 
S208	 0.699011	 0.302665	 0.000000 
Mo209	 0.670253	 0.409990	 0.500000 
Mo210	 0.738294	 0.341949	 0.500000 
S211	 0.723915	 0.395612	 1.000000 
S212	 0.723915	 0.395612	 0.000000 
S213	 0.655874	 0.463653	 1.000000 
S214	 0.655874	 0.463653	 0.000000 
Mo215	 0.627116	 0.570978	 0.500000 
Mo216	 0.695158	 0.502937	 0.500000 
S217	 0.680779	 0.556599	 1.000000 
S218	 0.680779	 0.556599	 0.000000 
S219	 0.612738	 0.624641	 1.000000 
S220	 0.612738	 0.624641	 0.000000 
Mo221	 0.583980	 0.731966	 0.500000 
Mo222	 0.652021	 0.663924	 0.500000 
S223	 0.637642	 0.717587	 1.000000 
S224	 0.637642	 0.717587	 0.000000 
S225	 0.569601	 0.785628	 1.000000 
S226	 0.569601	 0.785628	 0.000000 
Mo227	 0.540843	 0.892953	 0.500000 
Mo228	 0.608885	 0.824912	 0.500000 
S229	 0.594506	 0.878574	 1.000000 
S230	 0.594506	 0.878574	 0.000000 
S231	 0.526465	 0.946616	 1.000000 
S232	 0.526465	 0.946616	 0.000000 
Mo233	 0.756526	 0.088015	 0.500000 
Mo234	 0.565748	 0.985900	 0.500000 
S235	 0.810188	 0.073636	 1.000000 
S236	 0.810188	 0.073636	 0.000000 
S237	 0.835093	 0.166583	 1.000000 
S238	 0.835093	 0.166583	 0.000000 
Mo239	 0.806336	 0.273908	 0.500000 
Mo240	 0.874377	 0.205866	 0.500000 
S241	 0.859998	 0.259529	 1.000000 
S242	 0.859998	 0.259529	 0.000000 
S243	 0.791957	 0.327570	 1.000000 
S244	 0.791957	 0.327570	 0.000000 
Mo245	 0.763199	 0.434895	 0.500000 
Mo246	 0.831241	 0.366854	 0.500000 
S247	 0.816862	 0.420516	 1.000000 
S248	 0.816862	 0.420516	 0.000000 
S249	 0.748820	 0.488558	 1.000000 
S250	 0.748820	 0.488558	 0.000000 
Mo251	 0.720063	 0.595883	 0.500000 
Mo252	 0.788104	 0.527842	 0.500000 
S253	 0.773725	 0.581504	 1.000000 
S254	 0.773725	 0.581504	 0.000000 
S255	 0.705684	 0.649545	 1.000000 
S256	 0.705684	 0.649545	 0.000000 
Mo257	 0.676926	 0.756871	 0.500000 
Mo258	 0.744968	 0.688829	 0.500000 
S259	 0.730589	 0.742492	 1.000000 
S260	 0.730589	 0.742492	 0.000000 
S261	 0.662547	 0.810533	 1.000000 
S262	 0.662547	 0.810533	 0.000000 
Mo263	 0.633790	 0.917858	 0.500000 
Mo264	 0.701831	 0.849817	 0.500000 
S265	 0.687452	 0.903479	 1.000000 
S266	 0.687452	 0.903479	 0.000000 
S267	 0.619411	 0.971521	 1.000000 
S268	 0.619411	 0.971521	 0.000000 
Mo269	 0.849472	 0.112920	 0.500000 
S270	 0.903135	 0.098541	 1.000000 
S271	 0.903135	 0.098541	 0.000000 
S272	 0.928040	 0.191487	 1.000000 
S273	 0.928040	 0.191487	 0.000000 
Mo274	 0.899282	 0.298813	 0.500000 
Mo275	 0.967323	 0.230771	 0.500000 
S276	 0.952945	 0.284434	 1.000000 
S277	 0.952945	 0.284434	 0.000000 
S278	 0.884903	 0.352475	 1.000000 
S279	 0.884903	 0.352475	 0.000000 
Mo280	 0.856145	 0.459800	 0.500000 
Mo281	 0.924187	 0.391759	 0.500000 
S282	 0.909808	 0.445421	 1.000000 
S283	 0.909808	 0.445421	 0.000000 
S284	 0.841767	 0.513463	 1.000000 
S285	 0.841767	 0.513463	 0.000000 
Mo286	 0.813009	 0.620788	 0.500000 
Mo287	 0.881050	 0.552746	 0.500000 
S288	 0.866671	 0.606409	 1.000000 
S289	 0.866671	 0.606409	 0.000000 
S290	 0.798630	 0.674450	 1.000000 
S291	 0.798630	 0.674450	 0.000000 
Mo292	 0.769872	 0.781775	 0.500000 
Mo293	 0.837914	 0.713734	 0.500000 
S294	 0.823535	 0.767397	 1.000000 
S295	 0.823535	 0.767397	 0.000000 
S296	 0.755494	 0.835438	 1.000000 
S297	 0.755494	 0.835438	 0.000000 
Mo298	 0.726736	 0.942763	 0.500000 
Mo299	 0.794777	 0.874722	 0.500000 
S300	 0.780398	 0.928384	 1.000000 
S301	 0.780398	 0.928384	 0.000000 
S302	 0.712357	 0.996426	 1.000000 
S303	 0.712357	 0.996426	 0.000000 
Mo304	 0.942418	 0.137825	 0.500000 
S305	 0.996081	 0.123446	 1.000000 
S306	 0.996081	 0.123446	 0.000000 
Mo307	 0.992228	 0.323717	 0.500000 
S308	 0.977849	 0.377380	 1.000000 
S309	 0.977849	 0.377380	 0.000000 
Mo310	 0.949092	 0.484705	 0.500000 
S311	 0.934713	 0.538368	 1.000000 
S312	 0.934713	 0.538368	 0.000000 
Mo313	 0.905955	 0.645693	 0.500000 
Mo314	 0.973997	 0.577651	 0.500000 
S315	 0.959618	 0.631314	 1.000000 
S316	 0.959618	 0.631314	 0.000000 
S317	 0.891576	 0.699355	 1.000000 
S318	 0.891576	 0.699355	 0.000000 
Mo319	 0.862819	 0.806680	 0.500000 
Mo320	 0.930860	 0.738639	 0.500000 
S321	 0.916481	 0.792301	 1.000000 
S322	 0.916481	 0.792301	 0.000000 
S323	 0.848440	 0.860343	 1.000000 
S324	 0.848440	 0.860343	 0.000000 
Mo325	 0.819682	 0.967668	 0.500000 
Mo326	 0.887724	 0.899627	 0.500000 
S327	 0.873345	 0.953289	 1.000000 
S328	 0.873345	 0.953289	 0.000000 
#                 ---end-of-data-block---
