data_Single Layer of MoS2nx 10 ny 6 nz 1
_cell_length_a               32.423991
_cell_length_b               32.423991
_cell_length_c               3.080000
_cell_angle_alpha          90.000000
_cell_angle_beta           90.000000
_cell_angle_gamma          90.000000
_symmetry_cell_setting          Triclinic
_symmetry_space_group_name_H-M 'P 1' 
loop_
_atom_site_label
_atom_site_fract_x
_atom_site_fract_y
_atom_site_fract_z
Mo1	 0.161189	 0.105159	 0.500000 
Mo2	 0.229230	 0.037117	 0.500000 
S3	 0.214852	 0.090780	 1.000000 
S4	 0.214852	 0.090780	 0.000000 
S5	 0.146810	 0.158821	 1.000000 
S6	 0.146810	 0.158821	 0.000000 
Mo7	 0.118053	 0.266146	 0.500000 
Mo8	 0.186094	 0.198105	 0.500000 
S9	 0.171715	 0.251767	 1.000000 
S10	 0.171715	 0.251767	 0.000000 
S11	 0.103674	 0.319809	 1.000000 
S12	 0.103674	 0.319809	 0.000000 
Mo13	 0.074916	 0.427134	 0.500000 
Mo14	 0.142957	 0.359093	 0.500000 
S15	 0.128579	 0.412755	 1.000000 
S16	 0.128579	 0.412755	 0.000000 
S17	 0.060537	 0.480796	 1.000000 
S18	 0.060537	 0.480796	 0.000000 
Mo19	 0.031780	 0.588122	 0.500000 
Mo20	 0.099821	 0.520080	 0.500000 
S21	 0.085442	 0.573743	 1.000000 
S22	 0.085442	 0.573743	 0.000000 
S23	 0.017401	 0.641784	 1.000000 
S24	 0.017401	 0.641784	 0.000000 
Mo25	 0.056684	 0.681068	 0.500000 
S26	 0.042306	 0.734730	 1.000000 
S27	 0.042306	 0.734730	 0.000000 
Mo28	 0.013548	 0.842055	 0.500000 
S29	 0.282893	 0.022738	 1.000000 
S30	 0.282893	 0.022738	 0.000000 
Mo31	 0.254135	 0.130064	 0.500000 
Mo32	 0.322177	 0.062022	 0.500000 
S33	 0.307798	 0.115685	 1.000000 
S34	 0.307798	 0.115685	 0.000000 
S35	 0.239756	 0.183726	 1.000000 
S36	 0.239756	 0.183726	 0.000000 
Mo37	 0.210999	 0.291051	 0.500000 
Mo38	 0.279040	 0.223010	 0.500000 
S39	 0.264661	 0.276672	 1.000000 
S40	 0.264661	 0.276672	 0.000000 
S41	 0.196620	 0.344714	 1.000000 
S42	 0.196620	 0.344714	 0.000000 
Mo43	 0.167862	 0.452039	 0.500000 
Mo44	 0.235904	 0.383997	 0.500000 
S45	 0.221525	 0.437660	 1.000000 
S46	 0.221525	 0.437660	 0.000000 
S47	 0.153483	 0.505701	 1.000000 
S48	 0.153483	 0.505701	 0.000000 
Mo49	 0.124726	 0.613026	 0.500000 
Mo50	 0.192767	 0.544985	 0.500000 
S51	 0.178388	 0.598648	 1.000000 
S52	 0.178388	 0.598648	 0.000000 
S53	 0.110347	 0.666689	 1.000000 
S54	 0.110347	 0.666689	 0.000000 
Mo55	 0.081589	 0.774014	 0.500000 
Mo56	 0.149631	 0.705973	 0.500000 
S57	 0.135252	 0.759635	 1.000000 
S58	 0.135252	 0.759635	 0.000000 
S59	 0.067210	 0.827677	 1.000000 
S60	 0.067210	 0.827677	 0.000000 
Mo61	 0.106494	 0.866960	 0.500000 
S62	 0.375839	 0.047643	 1.000000 
S63	 0.375839	 0.047643	 0.000000 
Mo64	 0.347082	 0.154968	 0.500000 
Mo65	 0.415123	 0.086927	 0.500000 
S66	 0.400744	 0.140590	 1.000000 
S67	 0.400744	 0.140590	 0.000000 
S68	 0.332703	 0.208631	 1.000000 
S69	 0.332703	 0.208631	 0.000000 
Mo70	 0.303945	 0.315956	 0.500000 
Mo71	 0.371986	 0.247915	 0.500000 
S72	 0.357608	 0.301577	 1.000000 
S73	 0.357608	 0.301577	 0.000000 
S74	 0.289566	 0.369619	 1.000000 
S75	 0.289566	 0.369619	 0.000000 
Mo76	 0.260809	 0.476944	 0.500000 
Mo77	 0.328850	 0.408902	 0.500000 
S78	 0.314471	 0.462565	 1.000000 
S79	 0.314471	 0.462565	 0.000000 
S80	 0.246430	 0.530606	 1.000000 
S81	 0.246430	 0.530606	 0.000000 
Mo82	 0.217672	 0.637931	 0.500000 
Mo83	 0.285713	 0.569890	 0.500000 
S84	 0.271335	 0.623552	 1.000000 
S85	 0.271335	 0.623552	 0.000000 
S86	 0.203293	 0.691594	 1.000000 
S87	 0.203293	 0.691594	 0.000000 
Mo88	 0.174536	 0.798919	 0.500000 
Mo89	 0.242577	 0.730878	 0.500000 
S90	 0.228198	 0.784540	 1.000000 
S91	 0.228198	 0.784540	 0.000000 
S92	 0.160157	 0.852582	 1.000000 
S93	 0.160157	 0.852582	 0.000000 
Mo94	 0.199440	 0.891865	 0.500000 
S95	 0.468785	 0.072548	 1.000000 
S96	 0.468785	 0.072548	 0.000000 
Mo97	 0.440028	 0.179873	 0.500000 
Mo98	 0.508069	 0.111832	 0.500000 
S99	 0.493690	 0.165494	 1.000000 
S100	 0.493690	 0.165494	 0.000000 
S101	 0.425649	 0.233536	 1.000000 
S102	 0.425649	 0.233536	 0.000000 
Mo103	 0.396891	 0.340861	 0.500000 
Mo104	 0.464933	 0.272820	 0.500000 
S105	 0.450554	 0.326482	 1.000000 
S106	 0.450554	 0.326482	 0.000000 
S107	 0.382512	 0.394523	 1.000000 
S108	 0.382512	 0.394523	 0.000000 
Mo109	 0.353755	 0.501849	 0.500000 
Mo110	 0.421796	 0.433807	 0.500000 
S111	 0.407417	 0.487470	 1.000000 
S112	 0.407417	 0.487470	 0.000000 
S113	 0.339376	 0.555511	 1.000000 
S114	 0.339376	 0.555511	 0.000000 
Mo115	 0.310618	 0.662836	 0.500000 
Mo116	 0.378660	 0.594795	 0.500000 
S117	 0.364281	 0.648457	 1.000000 
S118	 0.364281	 0.648457	 0.000000 
S119	 0.296239	 0.716499	 1.000000 
S120	 0.296239	 0.716499	 0.000000 
Mo121	 0.267482	 0.823824	 0.500000 
Mo122	 0.335523	 0.755782	 0.500000 
S123	 0.321144	 0.809445	 1.000000 
S124	 0.321144	 0.809445	 0.000000 
S125	 0.253103	 0.877486	 1.000000 
S126	 0.253103	 0.877486	 0.000000 
Mo127	 0.483164	 0.018886	 0.500000 
Mo128	 0.292387	 0.916770	 0.500000 
S129	 0.536827	 0.004507	 1.000000 
S130	 0.536827	 0.004507	 0.000000 
S131	 0.561732	 0.097453	 1.000000 
S132	 0.561732	 0.097453	 0.000000 
Mo133	 0.532974	 0.204778	 0.500000 
Mo134	 0.601015	 0.136737	 0.500000 
S135	 0.586637	 0.190399	 1.000000 
S136	 0.586637	 0.190399	 0.000000 
S137	 0.518595	 0.258441	 1.000000 
S138	 0.518595	 0.258441	 0.000000 
Mo139	 0.489838	 0.365766	 0.500000 
Mo140	 0.557879	 0.297724	 0.500000 
S141	 0.543500	 0.351387	 1.000000 
S142	 0.543500	 0.351387	 0.000000 
S143	 0.475459	 0.419428	 1.000000 
S144	 0.475459	 0.419428	 0.000000 
Mo145	 0.446701	 0.526753	 0.500000 
Mo146	 0.514742	 0.458712	 0.500000 
S147	 0.500364	 0.512375	 1.000000 
S148	 0.500364	 0.512375	 0.000000 
S149	 0.432322	 0.580416	 1.000000 
S150	 0.432322	 0.580416	 0.000000 
Mo151	 0.403565	 0.687741	 0.500000 
Mo152	 0.471606	 0.619700	 0.500000 
S153	 0.457227	 0.673362	 1.000000 
S154	 0.457227	 0.673362	 0.000000 
S155	 0.389186	 0.741404	 1.000000 
S156	 0.389186	 0.741404	 0.000000 
Mo157	 0.360428	 0.848729	 0.500000 
Mo158	 0.428469	 0.780687	 0.500000 
S159	 0.414091	 0.834350	 1.000000 
S160	 0.414091	 0.834350	 0.000000 
S161	 0.346049	 0.902391	 1.000000 
S162	 0.346049	 0.902391	 0.000000 
Mo163	 0.576111	 0.043791	 0.500000 
Mo164	 0.385333	 0.941675	 0.500000 
S165	 0.629773	 0.029412	 1.000000 
S166	 0.629773	 0.029412	 0.000000 
S167	 0.654678	 0.122358	 1.000000 
S168	 0.654678	 0.122358	 0.000000 
Mo169	 0.625920	 0.229683	 0.500000 
Mo170	 0.693962	 0.161642	 0.500000 
S171	 0.679583	 0.215304	 1.000000 
S172	 0.679583	 0.215304	 0.000000 
S173	 0.611541	 0.283346	 1.000000 
S174	 0.611541	 0.283346	 0.000000 
Mo175	 0.582784	 0.390671	 0.500000 
Mo176	 0.650825	 0.322629	 0.500000 
S177	 0.636446	 0.376292	 1.000000 
S178	 0.636446	 0.376292	 0.000000 
S179	 0.568405	 0.444333	 1.000000 
S180	 0.568405	 0.444333	 0.000000 
Mo181	 0.539647	 0.551658	 0.500000 
Mo182	 0.607689	 0.483617	 0.500000 
S183	 0.593310	 0.537279	 1.000000 
S184	 0.593310	 0.537279	 0.000000 
S185	 0.525268	 0.605321	 1.000000 
S186	 0.525268	 0.605321	 0.000000 
Mo187	 0.496511	 0.712646	 0.500000 
Mo188	 0.564552	 0.644605	 0.500000 
S189	 0.550173	 0.698267	 1.000000 
S190	 0.550173	 0.698267	 0.000000 
S191	 0.482132	 0.766308	 1.000000 
S192	 0.482132	 0.766308	 0.000000 
Mo193	 0.453374	 0.873634	 0.500000 
Mo194	 0.521416	 0.805592	 0.500000 
S195	 0.507037	 0.859255	 1.000000 
S196	 0.507037	 0.859255	 0.000000 
S197	 0.438995	 0.927296	 1.000000 
S198	 0.438995	 0.927296	 0.000000 
Mo199	 0.669057	 0.068695	 0.500000 
Mo200	 0.478279	 0.966580	 0.500000 
S201	 0.722719	 0.054317	 1.000000 
S202	 0.722719	 0.054317	 0.000000 
S203	 0.747624	 0.147263	 1.000000 
S204	 0.747624	 0.147263	 0.000000 
Mo205	 0.718867	 0.254588	 0.500000 
Mo206	 0.786908	 0.186547	 0.500000 
S207	 0.772529	 0.240209	 1.000000 
S208	 0.772529	 0.240209	 0.000000 
S209	 0.704488	 0.308250	 1.000000 
S210	 0.704488	 0.308250	 0.000000 
Mo211	 0.675730	 0.415576	 0.500000 
Mo212	 0.743771	 0.347534	 0.500000 
S213	 0.729393	 0.401197	 1.000000 
S214	 0.729393	 0.401197	 0.000000 
S215	 0.661351	 0.469238	 1.000000 
S216	 0.661351	 0.469238	 0.000000 
Mo217	 0.632594	 0.576563	 0.500000 
Mo218	 0.700635	 0.508522	 0.500000 
S219	 0.686256	 0.562184	 1.000000 
S220	 0.686256	 0.562184	 0.000000 
S221	 0.618215	 0.630226	 1.000000 
S222	 0.618215	 0.630226	 0.000000 
Mo223	 0.589457	 0.737551	 0.500000 
Mo224	 0.657498	 0.669509	 0.500000 
S225	 0.643120	 0.723172	 1.000000 
S226	 0.643120	 0.723172	 0.000000 
S227	 0.575078	 0.791213	 1.000000 
S228	 0.575078	 0.791213	 0.000000 
Mo229	 0.546321	 0.898538	 0.500000 
Mo230	 0.614362	 0.830497	 0.500000 
S231	 0.599983	 0.884160	 1.000000 
S232	 0.599983	 0.884160	 0.000000 
S233	 0.531942	 0.952201	 1.000000 
S234	 0.531942	 0.952201	 0.000000 
Mo235	 0.762003	 0.093600	 0.500000 
Mo236	 0.571225	 0.991485	 0.500000 
S237	 0.815666	 0.079221	 1.000000 
S238	 0.815666	 0.079221	 0.000000 
S239	 0.840571	 0.172168	 1.000000 
S240	 0.840571	 0.172168	 0.000000 
Mo241	 0.811813	 0.279493	 0.500000 
Mo242	 0.879854	 0.211451	 0.500000 
S243	 0.865475	 0.265114	 1.000000 
S244	 0.865475	 0.265114	 0.000000 
S245	 0.797434	 0.333155	 1.000000 
S246	 0.797434	 0.333155	 0.000000 
Mo247	 0.768676	 0.440480	 0.500000 
Mo248	 0.836718	 0.372439	 0.500000 
S249	 0.822339	 0.426102	 1.000000 
S250	 0.822339	 0.426102	 0.000000 
S251	 0.754298	 0.494143	 1.000000 
S252	 0.754298	 0.494143	 0.000000 
Mo253	 0.725540	 0.601468	 0.500000 
Mo254	 0.793581	 0.533427	 0.500000 
S255	 0.779202	 0.587089	 1.000000 
S256	 0.779202	 0.587089	 0.000000 
S257	 0.711161	 0.655131	 1.000000 
S258	 0.711161	 0.655131	 0.000000 
Mo259	 0.682403	 0.762456	 0.500000 
Mo260	 0.750445	 0.694414	 0.500000 
S261	 0.736066	 0.748077	 1.000000 
S262	 0.736066	 0.748077	 0.000000 
S263	 0.668024	 0.816118	 1.000000 
S264	 0.668024	 0.816118	 0.000000 
Mo265	 0.639267	 0.923443	 0.500000 
Mo266	 0.707308	 0.855402	 0.500000 
S267	 0.692929	 0.909064	 1.000000 
S268	 0.692929	 0.909064	 0.000000 
S269	 0.624888	 0.977106	 1.000000 
S270	 0.624888	 0.977106	 0.000000 
Mo271	 0.854949	 0.118505	 0.500000 
S272	 0.908612	 0.104126	 1.000000 
S273	 0.908612	 0.104126	 0.000000 
S274	 0.933517	 0.197073	 1.000000 
S275	 0.933517	 0.197073	 0.000000 
Mo276	 0.904759	 0.304398	 0.500000 
Mo277	 0.972800	 0.236356	 0.500000 
S278	 0.958422	 0.290019	 1.000000 
S279	 0.958422	 0.290019	 0.000000 
S280	 0.890380	 0.358060	 1.000000 
S281	 0.890380	 0.358060	 0.000000 
Mo282	 0.861623	 0.465385	 0.500000 
Mo283	 0.929664	 0.397344	 0.500000 
S284	 0.915285	 0.451006	 1.000000 
S285	 0.915285	 0.451006	 0.000000 
S286	 0.847244	 0.519048	 1.000000 
S287	 0.847244	 0.519048	 0.000000 
Mo288	 0.818486	 0.626373	 0.500000 
Mo289	 0.886527	 0.558332	 0.500000 
S290	 0.872149	 0.611994	 1.000000 
S291	 0.872149	 0.611994	 0.000000 
S292	 0.804107	 0.680035	 1.000000 
S293	 0.804107	 0.680035	 0.000000 
Mo294	 0.775350	 0.787361	 0.500000 
Mo295	 0.843391	 0.719319	 0.500000 
S296	 0.829012	 0.772982	 1.000000 
S297	 0.829012	 0.772982	 0.000000 
S298	 0.760971	 0.841023	 1.000000 
S299	 0.760971	 0.841023	 0.000000 
Mo300	 0.732213	 0.948348	 0.500000 
Mo301	 0.800254	 0.880307	 0.500000 
S302	 0.785876	 0.933969	 1.000000 
S303	 0.785876	 0.933969	 0.000000 
Mo304	 0.947896	 0.143410	 0.500000 
Mo305	 0.997705	 0.329303	 0.500000 
Mo306	 0.136284	 0.012212	 0.500000 
S307	 0.121905	 0.065875	 1.000000 
S308	 0.121905	 0.065875	 0.000000 
S309	 0.983327	 0.382965	 1.000000 
S310	 0.983327	 0.382965	 0.000000 
Mo311	 0.954569	 0.490290	 0.500000 
Mo312	 0.093148	 0.173200	 0.500000 
S313	 0.078769	 0.226863	 1.000000 
S314	 0.078769	 0.226863	 0.000000 
S315	 0.940190	 0.543953	 1.000000 
S316	 0.940190	 0.543953	 0.000000 
Mo317	 0.911432	 0.651278	 0.500000 
Mo318	 0.050011	 0.334188	 0.500000 
S319	 0.035632	 0.387850	 1.000000 
S320	 0.035632	 0.387850	 0.000000 
S321	 0.897054	 0.704940	 1.000000 
S322	 0.897054	 0.704940	 0.000000 
Mo323	 0.868296	 0.812265	 0.500000 
Mo324	 0.006875	 0.495175	 0.500000 
S325	 0.853917	 0.865928	 1.000000 
S326	 0.853917	 0.865928	 0.000000 
Mo327	 0.825159	 0.973253	 0.500000 
#                 ---end-of-data-block---
