data_Single Layer of MoS2nx 10 ny 6 nz 1
_cell_length_a               32.423991
_cell_length_b               32.423991
_cell_length_c               3.080000
_cell_angle_alpha          90.000000
_cell_angle_beta           90.000000
_cell_angle_gamma          90.000000
_symmetry_cell_setting          Triclinic
_symmetry_space_group_name_H-M 'P 1' 
loop_
_atom_site_label
_atom_site_fract_x
_atom_site_fract_y
_atom_site_fract_z
Mo1	 0.196287	 0.080098	 0.500000 
Mo2	 0.264328	 0.012056	 0.500000 
S3	 0.249949	 0.065719	 1.000000 
S4	 0.249949	 0.065719	 0.000000 
S5	 0.181908	 0.133760	 1.000000 
S6	 0.181908	 0.133760	 0.000000 
Mo7	 0.153150	 0.241085	 0.500000 
Mo8	 0.221192	 0.173044	 0.500000 
S9	 0.206813	 0.226707	 1.000000 
S10	 0.206813	 0.226707	 0.000000 
S11	 0.138771	 0.294748	 1.000000 
S12	 0.138771	 0.294748	 0.000000 
Mo13	 0.110014	 0.402073	 0.500000 
Mo14	 0.178055	 0.334032	 0.500000 
S15	 0.163676	 0.387694	 1.000000 
S16	 0.163676	 0.387694	 0.000000 
S17	 0.095635	 0.455736	 1.000000 
S18	 0.095635	 0.455736	 0.000000 
Mo19	 0.066877	 0.563061	 0.500000 
Mo20	 0.134919	 0.495019	 0.500000 
S21	 0.120540	 0.548682	 1.000000 
S22	 0.120540	 0.548682	 0.000000 
S23	 0.052498	 0.616723	 1.000000 
S24	 0.052498	 0.616723	 0.000000 
Mo25	 0.023741	 0.724048	 0.500000 
Mo26	 0.091782	 0.656007	 0.500000 
S27	 0.077403	 0.709669	 1.000000 
S28	 0.077403	 0.709669	 0.000000 
S29	 0.009362	 0.777711	 1.000000 
S30	 0.009362	 0.777711	 0.000000 
Mo31	 0.048646	 0.816995	 0.500000 
S32	 0.034267	 0.870657	 1.000000 
S33	 0.034267	 0.870657	 0.000000 
Mo34	 0.289233	 0.105003	 0.500000 
Mo35	 0.357274	 0.036961	 0.500000 
S36	 0.342895	 0.090624	 1.000000 
S37	 0.342895	 0.090624	 0.000000 
S38	 0.274854	 0.158665	 1.000000 
S39	 0.274854	 0.158665	 0.000000 
Mo40	 0.246096	 0.265990	 0.500000 
Mo41	 0.314138	 0.197949	 0.500000 
S42	 0.299759	 0.251611	 1.000000 
S43	 0.299759	 0.251611	 0.000000 
S44	 0.231718	 0.319653	 1.000000 
S45	 0.231718	 0.319653	 0.000000 
Mo46	 0.202960	 0.426978	 0.500000 
Mo47	 0.271001	 0.358936	 0.500000 
S48	 0.256622	 0.412599	 1.000000 
S49	 0.256622	 0.412599	 0.000000 
S50	 0.188581	 0.480640	 1.000000 
S51	 0.188581	 0.480640	 0.000000 
Mo52	 0.159823	 0.587966	 0.500000 
Mo53	 0.227865	 0.519924	 0.500000 
S54	 0.213486	 0.573587	 1.000000 
S55	 0.213486	 0.573587	 0.000000 
S56	 0.145445	 0.641628	 1.000000 
S57	 0.145445	 0.641628	 0.000000 
Mo58	 0.116687	 0.748953	 0.500000 
Mo59	 0.184728	 0.680912	 0.500000 
S60	 0.170349	 0.734574	 1.000000 
S61	 0.170349	 0.734574	 0.000000 
S62	 0.102308	 0.802616	 1.000000 
S63	 0.102308	 0.802616	 0.000000 
Mo64	 0.141592	 0.841899	 0.500000 
S65	 0.127213	 0.895562	 1.000000 
S66	 0.127213	 0.895562	 0.000000 
S67	 0.410937	 0.022582	 1.000000 
S68	 0.410937	 0.022582	 0.000000 
Mo69	 0.382179	 0.129907	 0.500000 
Mo70	 0.450221	 0.061866	 0.500000 
S71	 0.435842	 0.115529	 1.000000 
S72	 0.435842	 0.115529	 0.000000 
S73	 0.367800	 0.183570	 1.000000 
S74	 0.367800	 0.183570	 0.000000 
Mo75	 0.339043	 0.290895	 0.500000 
Mo76	 0.407084	 0.222854	 0.500000 
S77	 0.392705	 0.276516	 1.000000 
S78	 0.392705	 0.276516	 0.000000 
S79	 0.324664	 0.344558	 1.000000 
S80	 0.324664	 0.344558	 0.000000 
Mo81	 0.295906	 0.451883	 0.500000 
Mo82	 0.363948	 0.383841	 0.500000 
S83	 0.349569	 0.437504	 1.000000 
S84	 0.349569	 0.437504	 0.000000 
S85	 0.281527	 0.505545	 1.000000 
S86	 0.281527	 0.505545	 0.000000 
Mo87	 0.252770	 0.612870	 0.500000 
Mo88	 0.320811	 0.544829	 0.500000 
S89	 0.306432	 0.598492	 1.000000 
S90	 0.306432	 0.598492	 0.000000 
S91	 0.238391	 0.666533	 1.000000 
S92	 0.238391	 0.666533	 0.000000 
Mo93	 0.209633	 0.773858	 0.500000 
Mo94	 0.277675	 0.705817	 0.500000 
S95	 0.263296	 0.759479	 1.000000 
S96	 0.263296	 0.759479	 0.000000 
S97	 0.195254	 0.827521	 1.000000 
S98	 0.195254	 0.827521	 0.000000 
Mo99	 0.234538	 0.866804	 0.500000 
S100	 0.220159	 0.920467	 1.000000 
S101	 0.220159	 0.920467	 0.000000 
S102	 0.503883	 0.047487	 1.000000 
S103	 0.503883	 0.047487	 0.000000 
Mo104	 0.475125	 0.154812	 0.500000 
Mo105	 0.543167	 0.086771	 0.500000 
S106	 0.528788	 0.140434	 1.000000 
S107	 0.528788	 0.140434	 0.000000 
S108	 0.460747	 0.208475	 1.000000 
S109	 0.460747	 0.208475	 0.000000 
Mo110	 0.431989	 0.315800	 0.500000 
Mo111	 0.500030	 0.247759	 0.500000 
S112	 0.485651	 0.301421	 1.000000 
S113	 0.485651	 0.301421	 0.000000 
S114	 0.417610	 0.369463	 1.000000 
S115	 0.417610	 0.369463	 0.000000 
Mo116	 0.388852	 0.476788	 0.500000 
Mo117	 0.456894	 0.408746	 0.500000 
S118	 0.442515	 0.462409	 1.000000 
S119	 0.442515	 0.462409	 0.000000 
S120	 0.374474	 0.530450	 1.000000 
S121	 0.374474	 0.530450	 0.000000 
Mo122	 0.345716	 0.637775	 0.500000 
Mo123	 0.413757	 0.569734	 0.500000 
S124	 0.399378	 0.623396	 1.000000 
S125	 0.399378	 0.623396	 0.000000 
S126	 0.331337	 0.691438	 1.000000 
S127	 0.331337	 0.691438	 0.000000 
Mo128	 0.302579	 0.798763	 0.500000 
Mo129	 0.370621	 0.730722	 0.500000 
S130	 0.356242	 0.784384	 1.000000 
S131	 0.356242	 0.784384	 0.000000 
S132	 0.288201	 0.852425	 1.000000 
S133	 0.288201	 0.852425	 0.000000 
Mo134	 0.327484	 0.891709	 0.500000 
S135	 0.313105	 0.945372	 1.000000 
S136	 0.313105	 0.945372	 0.000000 
S137	 0.596829	 0.072392	 1.000000 
S138	 0.596829	 0.072392	 0.000000 
Mo139	 0.568072	 0.179717	 0.500000 
Mo140	 0.636113	 0.111676	 0.500000 
S141	 0.621734	 0.165338	 1.000000 
S142	 0.621734	 0.165338	 0.000000 
S143	 0.553693	 0.233380	 1.000000 
S144	 0.553693	 0.233380	 0.000000 
Mo145	 0.524935	 0.340705	 0.500000 
Mo146	 0.592977	 0.272663	 0.500000 
S147	 0.578598	 0.326326	 1.000000 
S148	 0.578598	 0.326326	 0.000000 
S149	 0.510556	 0.394367	 1.000000 
S150	 0.510556	 0.394367	 0.000000 
Mo151	 0.481799	 0.501692	 0.500000 
Mo152	 0.549840	 0.433651	 0.500000 
S153	 0.535461	 0.487314	 1.000000 
S154	 0.535461	 0.487314	 0.000000 
S155	 0.467420	 0.555355	 1.000000 
S156	 0.467420	 0.555355	 0.000000 
Mo157	 0.438662	 0.662680	 0.500000 
Mo158	 0.506704	 0.594639	 0.500000 
S159	 0.492325	 0.648301	 1.000000 
S160	 0.492325	 0.648301	 0.000000 
S161	 0.424283	 0.716343	 1.000000 
S162	 0.424283	 0.716343	 0.000000 
Mo163	 0.395526	 0.823668	 0.500000 
Mo164	 0.463567	 0.755626	 0.500000 
S165	 0.449188	 0.809289	 1.000000 
S166	 0.449188	 0.809289	 0.000000 
S167	 0.381147	 0.877330	 1.000000 
S168	 0.381147	 0.877330	 0.000000 
Mo169	 0.611208	 0.018730	 0.500000 
Mo170	 0.420431	 0.916614	 0.500000 
S171	 0.406052	 0.970277	 1.000000 
S172	 0.406052	 0.970277	 0.000000 
S173	 0.689776	 0.097297	 1.000000 
S174	 0.689776	 0.097297	 0.000000 
Mo175	 0.661018	 0.204622	 0.500000 
Mo176	 0.729059	 0.136581	 0.500000 
S177	 0.714681	 0.190243	 1.000000 
S178	 0.714681	 0.190243	 0.000000 
S179	 0.646639	 0.258285	 1.000000 
S180	 0.646639	 0.258285	 0.000000 
Mo181	 0.617881	 0.365610	 0.500000 
Mo182	 0.685923	 0.297568	 0.500000 
S183	 0.671544	 0.351231	 1.000000 
S184	 0.671544	 0.351231	 0.000000 
S185	 0.603503	 0.419272	 1.000000 
S186	 0.603503	 0.419272	 0.000000 
Mo187	 0.574745	 0.526597	 0.500000 
Mo188	 0.642786	 0.458556	 0.500000 
S189	 0.628407	 0.512219	 1.000000 
S190	 0.628407	 0.512219	 0.000000 
S191	 0.560366	 0.580260	 1.000000 
S192	 0.560366	 0.580260	 0.000000 
Mo193	 0.531608	 0.687585	 0.500000 
Mo194	 0.599650	 0.619544	 0.500000 
S195	 0.585271	 0.673206	 1.000000 
S196	 0.585271	 0.673206	 0.000000 
S197	 0.517230	 0.741248	 1.000000 
S198	 0.517230	 0.741248	 0.000000 
Mo199	 0.488472	 0.848573	 0.500000 
Mo200	 0.556513	 0.780531	 0.500000 
S201	 0.542134	 0.834194	 1.000000 
S202	 0.542134	 0.834194	 0.000000 
S203	 0.474093	 0.902235	 1.000000 
S204	 0.474093	 0.902235	 0.000000 
Mo205	 0.704154	 0.043634	 0.500000 
Mo206	 0.513377	 0.941519	 0.500000 
S207	 0.498998	 0.995181	 1.000000 
S208	 0.498998	 0.995181	 0.000000 
S209	 0.782722	 0.122202	 1.000000 
S210	 0.782722	 0.122202	 0.000000 
Mo211	 0.753964	 0.229527	 0.500000 
Mo212	 0.822006	 0.161486	 0.500000 
S213	 0.807627	 0.215148	 1.000000 
S214	 0.807627	 0.215148	 0.000000 
S215	 0.739585	 0.283190	 1.000000 
S216	 0.739585	 0.283190	 0.000000 
Mo217	 0.710828	 0.390515	 0.500000 
Mo218	 0.778869	 0.322473	 0.500000 
S219	 0.764490	 0.376136	 1.000000 
S220	 0.764490	 0.376136	 0.000000 
S221	 0.696449	 0.444177	 1.000000 
S222	 0.696449	 0.444177	 0.000000 
Mo223	 0.667691	 0.551502	 0.500000 
Mo224	 0.735733	 0.483461	 0.500000 
S225	 0.721354	 0.537123	 1.000000 
S226	 0.721354	 0.537123	 0.000000 
S227	 0.653312	 0.605165	 1.000000 
S228	 0.653312	 0.605165	 0.000000 
Mo229	 0.624555	 0.712490	 0.500000 
Mo230	 0.692596	 0.644448	 0.500000 
S231	 0.678217	 0.698111	 1.000000 
S232	 0.678217	 0.698111	 0.000000 
S233	 0.610176	 0.766152	 1.000000 
S234	 0.610176	 0.766152	 0.000000 
Mo235	 0.581418	 0.873478	 0.500000 
Mo236	 0.649460	 0.805436	 0.500000 
S237	 0.635081	 0.859099	 1.000000 
S238	 0.635081	 0.859099	 0.000000 
S239	 0.567039	 0.927140	 1.000000 
S240	 0.567039	 0.927140	 0.000000 
Mo241	 0.797101	 0.068539	 0.500000 
Mo242	 0.606323	 0.966424	 0.500000 
S243	 0.875668	 0.147107	 1.000000 
S244	 0.875668	 0.147107	 0.000000 
Mo245	 0.846910	 0.254432	 0.500000 
Mo246	 0.914952	 0.186390	 0.500000 
S247	 0.900573	 0.240053	 1.000000 
S248	 0.900573	 0.240053	 0.000000 
S249	 0.832532	 0.308094	 1.000000 
S250	 0.832532	 0.308094	 0.000000 
Mo251	 0.803774	 0.415419	 0.500000 
Mo252	 0.871815	 0.347378	 0.500000 
S253	 0.857437	 0.401041	 1.000000 
S254	 0.857437	 0.401041	 0.000000 
S255	 0.789395	 0.469082	 1.000000 
S256	 0.789395	 0.469082	 0.000000 
Mo257	 0.760637	 0.576407	 0.500000 
Mo258	 0.828679	 0.508366	 0.500000 
S259	 0.814300	 0.562028	 1.000000 
S260	 0.814300	 0.562028	 0.000000 
S261	 0.746259	 0.630070	 1.000000 
S262	 0.746259	 0.630070	 0.000000 
Mo263	 0.717501	 0.737395	 0.500000 
Mo264	 0.785542	 0.669353	 0.500000 
S265	 0.771164	 0.723016	 1.000000 
S266	 0.771164	 0.723016	 0.000000 
S267	 0.703122	 0.791057	 1.000000 
S268	 0.703122	 0.791057	 0.000000 
Mo269	 0.674364	 0.898382	 0.500000 
Mo270	 0.742406	 0.830341	 0.500000 
S271	 0.728027	 0.884004	 1.000000 
S272	 0.728027	 0.884004	 0.000000 
S273	 0.659986	 0.952045	 1.000000 
S274	 0.659986	 0.952045	 0.000000 
Mo275	 0.890047	 0.093444	 0.500000 
Mo276	 0.699269	 0.991329	 0.500000 
S277	 0.968614	 0.172012	 1.000000 
S278	 0.968614	 0.172012	 0.000000 
Mo279	 0.939857	 0.279337	 0.500000 
S280	 0.993519	 0.264958	 1.000000 
S281	 0.993519	 0.264958	 0.000000 
S282	 0.925478	 0.332999	 1.000000 
S283	 0.925478	 0.332999	 0.000000 
Mo284	 0.896720	 0.440324	 0.500000 
Mo285	 0.964762	 0.372283	 0.500000 
S286	 0.950383	 0.425946	 1.000000 
S287	 0.950383	 0.425946	 0.000000 
S288	 0.882341	 0.493987	 1.000000 
S289	 0.882341	 0.493987	 0.000000 
Mo290	 0.853584	 0.601312	 0.500000 
Mo291	 0.921625	 0.533271	 0.500000 
S292	 0.907246	 0.586933	 1.000000 
S293	 0.907246	 0.586933	 0.000000 
S294	 0.839205	 0.654975	 1.000000 
S295	 0.839205	 0.654975	 0.000000 
Mo296	 0.810447	 0.762300	 0.500000 
Mo297	 0.878489	 0.694258	 0.500000 
S298	 0.864110	 0.747921	 1.000000 
S299	 0.864110	 0.747921	 0.000000 
S300	 0.796068	 0.815962	 1.000000 
S301	 0.796068	 0.815962	 0.000000 
Mo302	 0.767311	 0.923287	 0.500000 
Mo303	 0.835352	 0.855246	 0.500000 
S304	 0.820973	 0.908908	 1.000000 
S305	 0.820973	 0.908908	 0.000000 
S306	 0.752932	 0.976950	 1.000000 
S307	 0.752932	 0.976950	 0.000000 
Mo308	 0.982993	 0.118349	 0.500000 
S309	 0.157003	 0.040814	 1.000000 
S310	 0.157003	 0.040814	 0.000000 
Mo311	 0.989666	 0.465229	 0.500000 
Mo312	 0.128245	 0.148139	 0.500000 
S313	 0.113866	 0.201802	 1.000000 
S314	 0.113866	 0.201802	 0.000000 
S315	 0.975288	 0.518892	 1.000000 
S316	 0.975288	 0.518892	 0.000000 
Mo317	 0.946530	 0.626217	 0.500000 
Mo318	 0.085109	 0.309127	 0.500000 
S319	 0.070730	 0.362789	 1.000000 
S320	 0.070730	 0.362789	 0.000000 
S321	 0.932151	 0.679879	 1.000000 
S322	 0.932151	 0.679879	 0.000000 
Mo323	 0.903393	 0.787205	 0.500000 
Mo324	 0.041972	 0.470114	 0.500000 
S325	 0.027593	 0.523777	 1.000000 
S326	 0.027593	 0.523777	 0.000000 
S327	 0.889015	 0.840867	 1.000000 
S328	 0.889015	 0.840867	 0.000000 
Mo329	 0.860257	 0.948192	 0.500000 
#                 ---end-of-data-block---
