data_Single Layer of MoS2nx 10 ny 6 nz 1
_cell_length_a               32.423991
_cell_length_b               32.423991
_cell_length_c               3.080000
_cell_angle_alpha          90.000000
_cell_angle_beta           90.000000
_cell_angle_gamma          90.000000
_symmetry_cell_setting          Triclinic
_symmetry_space_group_name_H-M 'P 1' 
loop_
_atom_site_label
_atom_site_fract_x
_atom_site_fract_y
_atom_site_fract_z
Mo1	 0.383928	 0.051132	 0.500000 
Mo2	 0.476874	 0.026228	 0.500000 
S3	 0.437590	 0.065511	 1.000000 
S4	 0.437590	 0.065511	 0.000000 
S5	 0.344644	 0.090416	 1.000000 
S6	 0.344644	 0.090416	 0.000000 
Mo7	 0.266077	 0.168984	 0.500000 
Mo8	 0.359023	 0.144079	 0.500000 
S9	 0.319739	 0.183362	 1.000000 
S10	 0.319739	 0.183362	 0.000000 
S11	 0.226793	 0.208267	 1.000000 
S12	 0.226793	 0.208267	 0.000000 
Mo13	 0.148225	 0.286835	 0.500000 
Mo14	 0.241172	 0.261930	 0.500000 
S15	 0.201888	 0.301214	 1.000000 
S16	 0.201888	 0.301214	 0.000000 
S17	 0.108942	 0.326118	 1.000000 
S18	 0.108942	 0.326118	 0.000000 
Mo19	 0.030374	 0.404686	 0.500000 
Mo20	 0.123321	 0.379781	 0.500000 
S21	 0.084037	 0.419065	 1.000000 
S22	 0.084037	 0.419065	 0.000000 
Mo23	 0.005469	 0.497632	 0.500000 
S24	 0.530536	 0.040606	 1.000000 
S25	 0.530536	 0.040606	 0.000000 
Mo26	 0.451969	 0.119174	 0.500000 
Mo27	 0.544915	 0.094269	 0.500000 
S28	 0.505632	 0.133553	 1.000000 
S29	 0.505632	 0.133553	 0.000000 
S30	 0.412685	 0.158458	 1.000000 
S31	 0.412685	 0.158458	 0.000000 
Mo32	 0.334118	 0.237025	 0.500000 
Mo33	 0.427064	 0.212120	 0.500000 
S34	 0.387780	 0.251404	 1.000000 
S35	 0.387780	 0.251404	 0.000000 
S36	 0.294834	 0.276309	 1.000000 
S37	 0.294834	 0.276309	 0.000000 
Mo38	 0.216267	 0.354876	 0.500000 
Mo39	 0.309213	 0.329971	 0.500000 
S40	 0.269929	 0.369255	 1.000000 
S41	 0.269929	 0.369255	 0.000000 
S42	 0.176983	 0.394160	 1.000000 
S43	 0.176983	 0.394160	 0.000000 
Mo44	 0.098416	 0.472727	 0.500000 
Mo45	 0.191362	 0.447822	 0.500000 
S46	 0.152078	 0.487106	 1.000000 
S47	 0.152078	 0.487106	 0.000000 
S48	 0.059132	 0.512011	 1.000000 
S49	 0.059132	 0.512011	 0.000000 
Mo50	 0.073511	 0.565673	 0.500000 
S51	 0.034227	 0.604957	 1.000000 
S52	 0.034227	 0.604957	 0.000000 
Mo53	 0.569820	 0.001323	 0.500000 
S54	 0.623483	 0.015702	 1.000000 
S55	 0.623483	 0.015702	 0.000000 
S56	 0.598578	 0.108648	 1.000000 
S57	 0.598578	 0.108648	 0.000000 
Mo58	 0.520010	 0.187215	 0.500000 
Mo59	 0.612957	 0.162310	 0.500000 
S60	 0.573673	 0.201594	 1.000000 
S61	 0.573673	 0.201594	 0.000000 
S62	 0.480727	 0.226499	 1.000000 
S63	 0.480727	 0.226499	 0.000000 
Mo64	 0.402159	 0.305066	 0.500000 
Mo65	 0.495106	 0.280161	 0.500000 
S66	 0.455822	 0.319445	 1.000000 
S67	 0.455822	 0.319445	 0.000000 
S68	 0.362876	 0.344350	 1.000000 
S69	 0.362876	 0.344350	 0.000000 
Mo70	 0.284308	 0.422917	 0.500000 
Mo71	 0.377254	 0.398013	 0.500000 
S72	 0.337971	 0.437296	 1.000000 
S73	 0.337971	 0.437296	 0.000000 
S74	 0.245024	 0.462201	 1.000000 
S75	 0.245024	 0.462201	 0.000000 
Mo76	 0.166457	 0.540769	 0.500000 
Mo77	 0.259403	 0.515864	 0.500000 
S78	 0.220120	 0.555147	 1.000000 
S79	 0.220120	 0.555147	 0.000000 
S80	 0.127173	 0.580052	 1.000000 
S81	 0.127173	 0.580052	 0.000000 
Mo82	 0.048606	 0.658620	 0.500000 
Mo83	 0.141552	 0.633715	 0.500000 
S84	 0.102268	 0.672999	 1.000000 
S85	 0.102268	 0.672999	 0.000000 
S86	 0.009322	 0.697903	 1.000000 
S87	 0.009322	 0.697903	 0.000000 
Mo88	 0.637862	 0.069364	 0.500000 
Mo89	 0.730808	 0.044459	 0.500000 
S90	 0.691524	 0.083743	 1.000000 
S91	 0.691524	 0.083743	 0.000000 
S92	 0.666619	 0.176689	 1.000000 
S93	 0.666619	 0.176689	 0.000000 
Mo94	 0.588052	 0.255257	 0.500000 
Mo95	 0.680998	 0.230352	 0.500000 
S96	 0.641714	 0.269635	 1.000000 
S97	 0.641714	 0.269635	 0.000000 
S98	 0.548768	 0.294540	 1.000000 
S99	 0.548768	 0.294540	 0.000000 
Mo100	 0.470201	 0.373108	 0.500000 
Mo101	 0.563147	 0.348203	 0.500000 
S102	 0.523863	 0.387487	 1.000000 
S103	 0.523863	 0.387487	 0.000000 
S104	 0.430917	 0.412391	 1.000000 
S105	 0.430917	 0.412391	 0.000000 
Mo106	 0.352350	 0.490959	 0.500000 
Mo107	 0.445296	 0.466054	 0.500000 
S108	 0.406012	 0.505338	 1.000000 
S109	 0.406012	 0.505338	 0.000000 
S110	 0.313066	 0.530243	 1.000000 
S111	 0.313066	 0.530243	 0.000000 
Mo112	 0.234498	 0.608810	 0.500000 
Mo113	 0.327445	 0.583905	 0.500000 
S114	 0.288161	 0.623189	 1.000000 
S115	 0.288161	 0.623189	 0.000000 
S116	 0.195215	 0.648094	 1.000000 
S117	 0.195215	 0.648094	 0.000000 
Mo118	 0.116647	 0.726661	 0.500000 
Mo119	 0.209594	 0.701756	 0.500000 
S120	 0.170310	 0.741040	 1.000000 
S121	 0.170310	 0.741040	 0.000000 
S122	 0.077364	 0.765945	 1.000000 
S123	 0.077364	 0.765945	 0.000000 
Mo124	 0.705903	 0.137405	 0.500000 
Mo125	 0.798849	 0.112501	 0.500000 
S126	 0.759565	 0.151784	 1.000000 
S127	 0.759565	 0.151784	 0.000000 
S128	 0.734661	 0.244731	 1.000000 
S129	 0.734661	 0.244731	 0.000000 
Mo130	 0.656093	 0.323298	 0.500000 
Mo131	 0.749039	 0.298393	 0.500000 
S132	 0.709756	 0.337677	 1.000000 
S133	 0.709756	 0.337677	 0.000000 
S134	 0.616809	 0.362582	 1.000000 
S135	 0.616809	 0.362582	 0.000000 
Mo136	 0.538242	 0.441149	 0.500000 
Mo137	 0.631188	 0.416244	 0.500000 
S138	 0.591905	 0.455528	 1.000000 
S139	 0.591905	 0.455528	 0.000000 
S140	 0.498958	 0.480433	 1.000000 
S141	 0.498958	 0.480433	 0.000000 
Mo142	 0.420391	 0.559000	 0.500000 
Mo143	 0.513337	 0.534095	 0.500000 
S144	 0.474053	 0.573379	 1.000000 
S145	 0.474053	 0.573379	 0.000000 
S146	 0.381107	 0.598284	 1.000000 
S147	 0.381107	 0.598284	 0.000000 
Mo148	 0.302540	 0.676851	 0.500000 
Mo149	 0.395486	 0.651946	 0.500000 
S150	 0.356202	 0.691230	 1.000000 
S151	 0.356202	 0.691230	 0.000000 
S152	 0.263256	 0.716135	 1.000000 
S153	 0.263256	 0.716135	 0.000000 
Mo154	 0.184689	 0.794702	 0.500000 
Mo155	 0.277635	 0.769798	 0.500000 
S156	 0.238351	 0.809081	 1.000000 
S157	 0.238351	 0.809081	 0.000000 
S158	 0.145405	 0.833986	 1.000000 
S159	 0.145405	 0.833986	 0.000000 
Mo160	 0.773944	 0.205447	 0.500000 
Mo161	 0.866891	 0.180542	 0.500000 
S162	 0.827607	 0.219826	 1.000000 
S163	 0.827607	 0.219826	 0.000000 
S164	 0.802702	 0.312772	 1.000000 
S165	 0.802702	 0.312772	 0.000000 
Mo166	 0.724135	 0.391339	 0.500000 
Mo167	 0.817081	 0.366434	 0.500000 
S168	 0.777797	 0.405718	 1.000000 
S169	 0.777797	 0.405718	 0.000000 
S170	 0.684851	 0.430623	 1.000000 
S171	 0.684851	 0.430623	 0.000000 
Mo172	 0.606283	 0.509190	 0.500000 
Mo173	 0.699230	 0.484286	 0.500000 
S174	 0.659946	 0.523569	 1.000000 
S175	 0.659946	 0.523569	 0.000000 
S176	 0.567000	 0.548474	 1.000000 
S177	 0.567000	 0.548474	 0.000000 
Mo178	 0.488432	 0.627042	 0.500000 
Mo179	 0.581379	 0.602137	 0.500000 
S180	 0.542095	 0.641420	 1.000000 
S181	 0.542095	 0.641420	 0.000000 
S182	 0.449149	 0.666325	 1.000000 
S183	 0.449149	 0.666325	 0.000000 
Mo184	 0.370581	 0.744893	 0.500000 
Mo185	 0.463527	 0.719988	 0.500000 
S186	 0.424244	 0.759272	 1.000000 
S187	 0.424244	 0.759272	 0.000000 
S188	 0.331297	 0.784176	 1.000000 
S189	 0.331297	 0.784176	 0.000000 
Mo190	 0.252730	 0.862744	 0.500000 
Mo191	 0.345676	 0.837839	 0.500000 
S192	 0.306393	 0.877123	 1.000000 
S193	 0.306393	 0.877123	 0.000000 
S194	 0.213446	 0.902028	 1.000000 
S195	 0.213446	 0.902028	 0.000000 
Mo196	 0.841986	 0.273488	 0.500000 
Mo197	 0.934932	 0.248583	 0.500000 
S198	 0.895648	 0.287867	 1.000000 
S199	 0.895648	 0.287867	 0.000000 
S200	 0.870743	 0.380813	 1.000000 
S201	 0.870743	 0.380813	 0.000000 
Mo202	 0.792176	 0.459381	 0.500000 
Mo203	 0.885122	 0.434476	 0.500000 
S204	 0.845838	 0.473760	 1.000000 
S205	 0.845838	 0.473760	 0.000000 
S206	 0.752892	 0.498664	 1.000000 
S207	 0.752892	 0.498664	 0.000000 
Mo208	 0.674325	 0.577232	 0.500000 
Mo209	 0.767271	 0.552327	 0.500000 
S210	 0.727987	 0.591611	 1.000000 
S211	 0.727987	 0.591611	 0.000000 
S212	 0.635041	 0.616516	 1.000000 
S213	 0.635041	 0.616516	 0.000000 
Mo214	 0.556474	 0.695083	 0.500000 
Mo215	 0.649420	 0.670178	 0.500000 
S216	 0.610136	 0.709462	 1.000000 
S217	 0.610136	 0.709462	 0.000000 
S218	 0.517190	 0.734367	 1.000000 
S219	 0.517190	 0.734367	 0.000000 
Mo220	 0.438623	 0.812934	 0.500000 
Mo221	 0.531569	 0.788029	 0.500000 
S222	 0.492285	 0.827313	 1.000000 
S223	 0.492285	 0.827313	 0.000000 
S224	 0.399339	 0.852218	 1.000000 
S225	 0.399339	 0.852218	 0.000000 
Mo226	 0.320771	 0.930785	 0.500000 
Mo227	 0.413718	 0.905880	 0.500000 
S228	 0.374434	 0.945164	 1.000000 
S229	 0.374434	 0.945164	 0.000000 
S230	 0.281488	 0.970069	 1.000000 
S231	 0.281488	 0.970069	 0.000000 
Mo232	 0.910027	 0.341530	 0.500000 
S233	 0.963690	 0.355908	 1.000000 
S234	 0.963690	 0.355908	 0.000000 
S235	 0.938785	 0.448855	 1.000000 
S236	 0.938785	 0.448855	 0.000000 
Mo237	 0.860217	 0.527422	 0.500000 
Mo238	 0.953164	 0.502517	 0.500000 
S239	 0.913880	 0.541801	 1.000000 
S240	 0.913880	 0.541801	 0.000000 
S241	 0.820934	 0.566706	 1.000000 
S242	 0.820934	 0.566706	 0.000000 
Mo243	 0.742366	 0.645273	 0.500000 
Mo244	 0.835312	 0.620368	 0.500000 
S245	 0.796029	 0.659652	 1.000000 
S246	 0.796029	 0.659652	 0.000000 
S247	 0.703082	 0.684557	 1.000000 
S248	 0.703082	 0.684557	 0.000000 
Mo249	 0.624515	 0.763124	 0.500000 
Mo250	 0.717461	 0.738219	 0.500000 
S251	 0.678178	 0.777503	 1.000000 
S252	 0.678178	 0.777503	 0.000000 
S253	 0.585231	 0.802408	 1.000000 
S254	 0.585231	 0.802408	 0.000000 
Mo255	 0.506664	 0.880975	 0.500000 
Mo256	 0.599610	 0.856071	 0.500000 
S257	 0.560326	 0.895354	 1.000000 
S258	 0.560326	 0.895354	 0.000000 
S259	 0.467380	 0.920259	 1.000000 
S260	 0.467380	 0.920259	 0.000000 
Mo261	 0.388813	 0.998827	 0.500000 
Mo262	 0.481759	 0.973922	 0.500000 
Mo263	 0.978068	 0.409571	 0.500000 
Mo264	 0.928259	 0.595463	 0.500000 
S265	 0.981921	 0.609842	 1.000000 
S266	 0.981921	 0.609842	 0.000000 
S267	 0.888975	 0.634747	 1.000000 
S268	 0.888975	 0.634747	 0.000000 
Mo269	 0.810408	 0.713315	 0.500000 
Mo270	 0.903354	 0.688410	 0.500000 
S271	 0.864070	 0.727693	 1.000000 
S272	 0.864070	 0.727693	 0.000000 
S273	 0.771124	 0.752598	 1.000000 
S274	 0.771124	 0.752598	 0.000000 
Mo275	 0.692556	 0.831166	 0.500000 
Mo276	 0.785503	 0.806261	 0.500000 
S277	 0.746219	 0.845545	 1.000000 
S278	 0.746219	 0.845545	 0.000000 
S279	 0.653273	 0.870449	 1.000000 
S280	 0.653273	 0.870449	 0.000000 
Mo281	 0.574705	 0.949017	 0.500000 
Mo282	 0.667652	 0.924112	 0.500000 
S283	 0.628368	 0.963396	 1.000000 
S284	 0.628368	 0.963396	 0.000000 
S285	 0.535422	 0.988301	 1.000000 
S286	 0.535422	 0.988301	 0.000000 
Mo287	 0.996300	 0.663505	 0.500000 
S288	 0.957016	 0.702789	 1.000000 
S289	 0.957016	 0.702789	 0.000000 
Mo290	 0.878449	 0.781356	 0.500000 
Mo291	 0.290981	 0.076037	 0.500000 
S292	 0.251698	 0.115321	 1.000000 
S293	 0.251698	 0.115321	 0.000000 
S294	 0.839165	 0.820640	 1.000000 
S295	 0.839165	 0.820640	 0.000000 
Mo296	 0.760598	 0.899207	 0.500000 
Mo297	 0.173130	 0.193888	 0.500000 
S298	 0.133847	 0.233172	 1.000000 
S299	 0.133847	 0.233172	 0.000000 
S300	 0.721314	 0.938491	 1.000000 
S301	 0.721314	 0.938491	 0.000000 
Mo302	 0.055279	 0.311740	 0.500000 
S303	 0.015995	 0.351023	 1.000000 
S304	 0.015995	 0.351023	 0.000000 
#                 ---end-of-data-block---
