data_Single Layer of MoS2nx 10 ny 6 nz 1
_cell_length_a               32.423991
_cell_length_b               32.423991
_cell_length_c               3.080000
_cell_angle_alpha          90.000000
_cell_angle_beta           90.000000
_cell_angle_gamma          90.000000
_symmetry_cell_setting          Triclinic
_symmetry_space_group_name_H-M 'P 1' 
loop_
_atom_site_label
_atom_site_fract_x
_atom_site_fract_y
_atom_site_fract_z
Mo1	 0.401282	 0.051830	 0.500000 
Mo2	 0.494228	 0.026925	 0.500000 
S3	 0.454944	 0.066208	 1.000000 
S4	 0.454944	 0.066208	 0.000000 
S5	 0.361998	 0.091113	 1.000000 
S6	 0.361998	 0.091113	 0.000000 
Mo7	 0.283430	 0.169681	 0.500000 
Mo8	 0.376377	 0.144776	 0.500000 
S9	 0.337093	 0.184060	 1.000000 
S10	 0.337093	 0.184060	 0.000000 
S11	 0.244147	 0.208964	 1.000000 
S12	 0.244147	 0.208964	 0.000000 
Mo13	 0.165579	 0.287532	 0.500000 
Mo14	 0.258526	 0.262627	 0.500000 
S15	 0.219242	 0.301911	 1.000000 
S16	 0.219242	 0.301911	 0.000000 
S17	 0.126296	 0.326816	 1.000000 
S18	 0.126296	 0.326816	 0.000000 
Mo19	 0.047728	 0.405383	 0.500000 
Mo20	 0.140674	 0.380478	 0.500000 
S21	 0.101391	 0.419762	 1.000000 
S22	 0.101391	 0.419762	 0.000000 
S23	 0.008444	 0.444667	 1.000000 
S24	 0.008444	 0.444667	 0.000000 
Mo25	 0.022823	 0.498329	 0.500000 
S26	 0.547890	 0.041304	 1.000000 
S27	 0.547890	 0.041304	 0.000000 
Mo28	 0.469323	 0.119871	 0.500000 
Mo29	 0.562269	 0.094966	 0.500000 
S30	 0.522985	 0.134250	 1.000000 
S31	 0.522985	 0.134250	 0.000000 
S32	 0.430039	 0.159155	 1.000000 
S33	 0.430039	 0.159155	 0.000000 
Mo34	 0.351472	 0.237722	 0.500000 
Mo35	 0.444418	 0.212817	 0.500000 
S36	 0.405134	 0.252101	 1.000000 
S37	 0.405134	 0.252101	 0.000000 
S38	 0.312188	 0.277006	 1.000000 
S39	 0.312188	 0.277006	 0.000000 
Mo40	 0.233621	 0.355573	 0.500000 
Mo41	 0.326567	 0.330668	 0.500000 
S42	 0.287283	 0.369952	 1.000000 
S43	 0.287283	 0.369952	 0.000000 
S44	 0.194337	 0.394857	 1.000000 
S45	 0.194337	 0.394857	 0.000000 
Mo46	 0.115770	 0.473424	 0.500000 
Mo47	 0.208716	 0.448519	 0.500000 
S48	 0.169432	 0.487803	 1.000000 
S49	 0.169432	 0.487803	 0.000000 
S50	 0.076486	 0.512708	 1.000000 
S51	 0.076486	 0.512708	 0.000000 
Mo52	 0.090865	 0.566371	 0.500000 
S53	 0.051581	 0.605654	 1.000000 
S54	 0.051581	 0.605654	 0.000000 
Mo55	 0.587174	 0.002020	 0.500000 
S56	 0.640837	 0.016399	 1.000000 
S57	 0.640837	 0.016399	 0.000000 
S58	 0.615932	 0.109345	 1.000000 
S59	 0.615932	 0.109345	 0.000000 
Mo60	 0.537364	 0.187912	 0.500000 
Mo61	 0.630311	 0.163007	 0.500000 
S62	 0.591027	 0.202291	 1.000000 
S63	 0.591027	 0.202291	 0.000000 
S64	 0.498081	 0.227196	 1.000000 
S65	 0.498081	 0.227196	 0.000000 
Mo66	 0.419513	 0.305763	 0.500000 
Mo67	 0.512459	 0.280859	 0.500000 
S68	 0.473176	 0.320142	 1.000000 
S69	 0.473176	 0.320142	 0.000000 
S70	 0.380229	 0.345047	 1.000000 
S71	 0.380229	 0.345047	 0.000000 
Mo72	 0.301662	 0.423615	 0.500000 
Mo73	 0.394608	 0.398710	 0.500000 
S74	 0.355325	 0.437993	 1.000000 
S75	 0.355325	 0.437993	 0.000000 
S76	 0.262378	 0.462898	 1.000000 
S77	 0.262378	 0.462898	 0.000000 
Mo78	 0.183811	 0.541466	 0.500000 
Mo79	 0.276757	 0.516561	 0.500000 
S80	 0.237473	 0.555845	 1.000000 
S81	 0.237473	 0.555845	 0.000000 
S82	 0.144527	 0.580749	 1.000000 
S83	 0.144527	 0.580749	 0.000000 
Mo84	 0.065960	 0.659317	 0.500000 
Mo85	 0.158906	 0.634412	 0.500000 
S86	 0.119622	 0.673696	 1.000000 
S87	 0.119622	 0.673696	 0.000000 
S88	 0.026676	 0.698601	 1.000000 
S89	 0.026676	 0.698601	 0.000000 
Mo90	 0.655215	 0.070061	 0.500000 
Mo91	 0.748162	 0.045156	 0.500000 
S92	 0.708878	 0.084440	 1.000000 
S93	 0.708878	 0.084440	 0.000000 
S94	 0.683973	 0.177386	 1.000000 
S95	 0.683973	 0.177386	 0.000000 
Mo96	 0.605406	 0.255954	 0.500000 
Mo97	 0.698352	 0.231049	 0.500000 
S98	 0.659068	 0.270333	 1.000000 
S99	 0.659068	 0.270333	 0.000000 
S100	 0.566122	 0.295237	 1.000000 
S101	 0.566122	 0.295237	 0.000000 
Mo102	 0.487555	 0.373805	 0.500000 
Mo103	 0.580501	 0.348900	 0.500000 
S104	 0.541217	 0.388184	 1.000000 
S105	 0.541217	 0.388184	 0.000000 
S106	 0.448271	 0.413089	 1.000000 
S107	 0.448271	 0.413089	 0.000000 
Mo108	 0.369703	 0.491656	 0.500000 
Mo109	 0.462650	 0.466751	 0.500000 
S110	 0.423366	 0.506035	 1.000000 
S111	 0.423366	 0.506035	 0.000000 
S112	 0.330420	 0.530940	 1.000000 
S113	 0.330420	 0.530940	 0.000000 
Mo114	 0.251852	 0.609507	 0.500000 
Mo115	 0.344799	 0.584602	 0.500000 
S116	 0.305515	 0.623886	 1.000000 
S117	 0.305515	 0.623886	 0.000000 
S118	 0.212569	 0.648791	 1.000000 
S119	 0.212569	 0.648791	 0.000000 
Mo120	 0.134001	 0.727358	 0.500000 
Mo121	 0.226947	 0.702453	 0.500000 
S122	 0.187664	 0.741737	 1.000000 
S123	 0.187664	 0.741737	 0.000000 
S124	 0.094717	 0.766642	 1.000000 
S125	 0.094717	 0.766642	 0.000000 
Mo126	 0.723257	 0.138103	 0.500000 
Mo127	 0.816203	 0.113198	 0.500000 
S128	 0.776919	 0.152481	 1.000000 
S129	 0.776919	 0.152481	 0.000000 
S130	 0.752015	 0.245428	 1.000000 
S131	 0.752015	 0.245428	 0.000000 
Mo132	 0.673447	 0.323995	 0.500000 
Mo133	 0.766393	 0.299090	 0.500000 
S134	 0.727110	 0.338374	 1.000000 
S135	 0.727110	 0.338374	 0.000000 
S136	 0.634163	 0.363279	 1.000000 
S137	 0.634163	 0.363279	 0.000000 
Mo138	 0.555596	 0.441846	 0.500000 
Mo139	 0.648542	 0.416941	 0.500000 
S140	 0.609258	 0.456225	 1.000000 
S141	 0.609258	 0.456225	 0.000000 
S142	 0.516312	 0.481130	 1.000000 
S143	 0.516312	 0.481130	 0.000000 
Mo144	 0.437745	 0.559697	 0.500000 
Mo145	 0.530691	 0.534792	 0.500000 
S146	 0.491407	 0.574076	 1.000000 
S147	 0.491407	 0.574076	 0.000000 
S148	 0.398461	 0.598981	 1.000000 
S149	 0.398461	 0.598981	 0.000000 
Mo150	 0.319894	 0.677548	 0.500000 
Mo151	 0.412840	 0.652644	 0.500000 
S152	 0.373556	 0.691927	 1.000000 
S153	 0.373556	 0.691927	 0.000000 
S154	 0.280610	 0.716832	 1.000000 
S155	 0.280610	 0.716832	 0.000000 
Mo156	 0.202043	 0.795400	 0.500000 
Mo157	 0.294989	 0.770495	 0.500000 
S158	 0.255705	 0.809778	 1.000000 
S159	 0.255705	 0.809778	 0.000000 
S160	 0.162759	 0.834683	 1.000000 
S161	 0.162759	 0.834683	 0.000000 
Mo162	 0.791298	 0.206144	 0.500000 
Mo163	 0.884244	 0.181239	 0.500000 
S164	 0.844961	 0.220523	 1.000000 
S165	 0.844961	 0.220523	 0.000000 
S166	 0.820056	 0.313469	 1.000000 
S167	 0.820056	 0.313469	 0.000000 
Mo168	 0.741488	 0.392036	 0.500000 
Mo169	 0.834435	 0.367132	 0.500000 
S170	 0.795151	 0.406415	 1.000000 
S171	 0.795151	 0.406415	 0.000000 
S172	 0.702205	 0.431320	 1.000000 
S173	 0.702205	 0.431320	 0.000000 
Mo174	 0.623637	 0.509888	 0.500000 
Mo175	 0.716584	 0.484983	 0.500000 
S176	 0.677300	 0.524266	 1.000000 
S177	 0.677300	 0.524266	 0.000000 
S178	 0.584354	 0.549171	 1.000000 
S179	 0.584354	 0.549171	 0.000000 
Mo180	 0.505786	 0.627739	 0.500000 
Mo181	 0.598732	 0.602834	 0.500000 
S182	 0.559449	 0.642118	 1.000000 
S183	 0.559449	 0.642118	 0.000000 
S184	 0.466502	 0.667022	 1.000000 
S185	 0.466502	 0.667022	 0.000000 
Mo186	 0.387935	 0.745590	 0.500000 
Mo187	 0.480881	 0.720685	 0.500000 
S188	 0.441598	 0.759969	 1.000000 
S189	 0.441598	 0.759969	 0.000000 
S190	 0.348651	 0.784874	 1.000000 
S191	 0.348651	 0.784874	 0.000000 
Mo192	 0.270084	 0.863441	 0.500000 
Mo193	 0.363030	 0.838536	 0.500000 
S194	 0.323746	 0.877820	 1.000000 
S195	 0.323746	 0.877820	 0.000000 
S196	 0.230800	 0.902725	 1.000000 
S197	 0.230800	 0.902725	 0.000000 
Mo198	 0.859340	 0.274185	 0.500000 
Mo199	 0.952286	 0.249280	 0.500000 
S200	 0.913002	 0.288564	 1.000000 
S201	 0.913002	 0.288564	 0.000000 
S202	 0.888097	 0.381510	 1.000000 
S203	 0.888097	 0.381510	 0.000000 
Mo204	 0.809530	 0.460078	 0.500000 
Mo205	 0.902476	 0.435173	 0.500000 
S206	 0.863192	 0.474457	 1.000000 
S207	 0.863192	 0.474457	 0.000000 
S208	 0.770246	 0.499362	 1.000000 
S209	 0.770246	 0.499362	 0.000000 
Mo210	 0.691679	 0.577929	 0.500000 
Mo211	 0.784625	 0.553024	 0.500000 
S212	 0.745341	 0.592308	 1.000000 
S213	 0.745341	 0.592308	 0.000000 
S214	 0.652395	 0.617213	 1.000000 
S215	 0.652395	 0.617213	 0.000000 
Mo216	 0.573828	 0.695780	 0.500000 
Mo217	 0.666774	 0.670875	 0.500000 
S218	 0.627490	 0.710159	 1.000000 
S219	 0.627490	 0.710159	 0.000000 
S220	 0.534544	 0.735064	 1.000000 
S221	 0.534544	 0.735064	 0.000000 
Mo222	 0.455976	 0.813631	 0.500000 
Mo223	 0.548923	 0.788726	 0.500000 
S224	 0.509639	 0.828010	 1.000000 
S225	 0.509639	 0.828010	 0.000000 
S226	 0.416693	 0.852915	 1.000000 
S227	 0.416693	 0.852915	 0.000000 
Mo228	 0.338125	 0.931482	 0.500000 
Mo229	 0.431072	 0.906577	 0.500000 
S230	 0.391788	 0.945861	 1.000000 
S231	 0.391788	 0.945861	 0.000000 
S232	 0.298842	 0.970766	 1.000000 
S233	 0.298842	 0.970766	 0.000000 
Mo234	 0.927381	 0.342227	 0.500000 
S235	 0.981044	 0.356606	 1.000000 
S236	 0.981044	 0.356606	 0.000000 
S237	 0.956139	 0.449552	 1.000000 
S238	 0.956139	 0.449552	 0.000000 
Mo239	 0.877571	 0.528119	 0.500000 
Mo240	 0.970517	 0.503214	 0.500000 
S241	 0.931234	 0.542498	 1.000000 
S242	 0.931234	 0.542498	 0.000000 
S243	 0.838288	 0.567403	 1.000000 
S244	 0.838288	 0.567403	 0.000000 
Mo245	 0.759720	 0.645970	 0.500000 
Mo246	 0.852666	 0.621065	 0.500000 
S247	 0.813383	 0.660349	 1.000000 
S248	 0.813383	 0.660349	 0.000000 
S249	 0.720436	 0.685254	 1.000000 
S250	 0.720436	 0.685254	 0.000000 
Mo251	 0.641869	 0.763821	 0.500000 
Mo252	 0.734815	 0.738917	 0.500000 
S253	 0.695532	 0.778200	 1.000000 
S254	 0.695532	 0.778200	 0.000000 
S255	 0.602585	 0.803105	 1.000000 
S256	 0.602585	 0.803105	 0.000000 
Mo257	 0.524018	 0.881673	 0.500000 
Mo258	 0.616964	 0.856768	 0.500000 
S259	 0.577680	 0.896051	 1.000000 
S260	 0.577680	 0.896051	 0.000000 
S261	 0.484734	 0.920956	 1.000000 
S262	 0.484734	 0.920956	 0.000000 
Mo263	 0.406167	 0.999524	 0.500000 
Mo264	 0.499113	 0.974619	 0.500000 
Mo265	 0.995422	 0.410268	 0.500000 
Mo266	 0.945613	 0.596161	 0.500000 
S267	 0.999275	 0.610539	 1.000000 
S268	 0.999275	 0.610539	 0.000000 
S269	 0.906329	 0.635444	 1.000000 
S270	 0.906329	 0.635444	 0.000000 
Mo271	 0.827761	 0.714012	 0.500000 
Mo272	 0.920708	 0.689107	 0.500000 
S273	 0.881424	 0.728391	 1.000000 
S274	 0.881424	 0.728391	 0.000000 
S275	 0.788478	 0.753295	 1.000000 
S276	 0.788478	 0.753295	 0.000000 
Mo277	 0.709910	 0.831863	 0.500000 
Mo278	 0.802857	 0.806958	 0.500000 
S279	 0.763573	 0.846242	 1.000000 
S280	 0.763573	 0.846242	 0.000000 
S281	 0.670627	 0.871147	 1.000000 
S282	 0.670627	 0.871147	 0.000000 
Mo283	 0.592059	 0.949714	 0.500000 
Mo284	 0.685005	 0.924809	 0.500000 
S285	 0.645722	 0.964093	 1.000000 
S286	 0.645722	 0.964093	 0.000000 
S287	 0.552776	 0.988998	 1.000000 
S288	 0.552776	 0.988998	 0.000000 
S289	 0.974370	 0.703486	 1.000000 
S290	 0.974370	 0.703486	 0.000000 
Mo291	 0.895803	 0.782053	 0.500000 
Mo292	 0.308335	 0.076734	 0.500000 
S293	 0.269052	 0.116018	 1.000000 
S294	 0.269052	 0.116018	 0.000000 
S295	 0.856519	 0.821337	 1.000000 
S296	 0.856519	 0.821337	 0.000000 
Mo297	 0.777952	 0.899904	 0.500000 
Mo298	 0.190484	 0.194586	 0.500000 
S299	 0.151200	 0.233869	 1.000000 
S300	 0.151200	 0.233869	 0.000000 
S301	 0.738668	 0.939188	 1.000000 
S302	 0.738668	 0.939188	 0.000000 
Mo303	 0.072633	 0.312437	 0.500000 
S304	 0.033349	 0.351720	 1.000000 
S305	 0.033349	 0.351720	 0.000000 
#                 ---end-of-data-block---
