data_Single Layer of MoS2nx 10 ny 6 nz 1
_cell_length_a               32.423991
_cell_length_b               32.423991
_cell_length_c               3.080000
_cell_angle_alpha          90.000000
_cell_angle_beta           90.000000
_cell_angle_gamma          90.000000
_symmetry_cell_setting          Triclinic
_symmetry_space_group_name_H-M 'P 1' 
loop_
_atom_site_label
_atom_site_fract_x
_atom_site_fract_y
_atom_site_fract_z
Mo1	 0.522171	 0.012789	 0.500000 
Mo2	 0.618396	 0.012789	 0.500000 
S3	 0.570283	 0.040567	 1.000000 
S4	 0.570283	 0.040567	 0.000000 
S5	 0.474058	 0.040567	 1.000000 
S6	 0.474058	 0.040567	 0.000000 
Mo7	 0.377833	 0.096123	 0.500000 
Mo8	 0.474058	 0.096123	 0.500000 
S9	 0.425946	 0.123900	 1.000000 
S10	 0.425946	 0.123900	 0.000000 
S11	 0.329721	 0.123900	 1.000000 
S12	 0.329721	 0.123900	 0.000000 
Mo13	 0.233496	 0.179456	 0.500000 
Mo14	 0.329721	 0.179456	 0.500000 
S15	 0.281608	 0.207234	 1.000000 
S16	 0.281608	 0.207234	 0.000000 
S17	 0.185383	 0.207234	 1.000000 
S18	 0.185383	 0.207234	 0.000000 
Mo19	 0.089158	 0.262789	 0.500000 
Mo20	 0.185383	 0.262789	 0.500000 
S21	 0.137271	 0.290567	 1.000000 
S22	 0.137271	 0.290567	 0.000000 
S23	 0.041045	 0.290567	 1.000000 
S24	 0.041045	 0.290567	 0.000000 
Mo25	 0.041045	 0.346123	 0.500000 
S26	 0.666508	 0.040567	 1.000000 
S27	 0.666508	 0.040567	 0.000000 
Mo28	 0.570283	 0.096123	 0.500000 
Mo29	 0.666508	 0.096123	 0.500000 
S30	 0.618396	 0.123900	 1.000000 
S31	 0.618396	 0.123900	 0.000000 
S32	 0.522171	 0.123900	 1.000000 
S33	 0.522171	 0.123900	 0.000000 
Mo34	 0.425946	 0.179456	 0.500000 
Mo35	 0.522171	 0.179456	 0.500000 
S36	 0.474058	 0.207234	 1.000000 
S37	 0.474058	 0.207234	 0.000000 
S38	 0.377833	 0.207234	 1.000000 
S39	 0.377833	 0.207234	 0.000000 
Mo40	 0.281608	 0.262789	 0.500000 
Mo41	 0.377833	 0.262789	 0.500000 
S42	 0.329721	 0.290567	 1.000000 
S43	 0.329721	 0.290567	 0.000000 
S44	 0.233496	 0.290567	 1.000000 
S45	 0.233496	 0.290567	 0.000000 
Mo46	 0.137271	 0.346123	 0.500000 
Mo47	 0.233496	 0.346123	 0.500000 
S48	 0.185383	 0.373900	 1.000000 
S49	 0.185383	 0.373900	 0.000000 
S50	 0.089158	 0.373900	 1.000000 
S51	 0.089158	 0.373900	 0.000000 
Mo52	 0.089158	 0.429456	 0.500000 
S53	 0.041045	 0.457234	 1.000000 
S54	 0.041045	 0.457234	 0.000000 
Mo55	 0.714621	 0.012789	 0.500000 
S56	 0.762733	 0.040567	 1.000000 
S57	 0.762733	 0.040567	 0.000000 
S58	 0.714621	 0.123900	 1.000000 
S59	 0.714621	 0.123900	 0.000000 
Mo60	 0.618396	 0.179456	 0.500000 
Mo61	 0.714621	 0.179456	 0.500000 
S62	 0.666508	 0.207234	 1.000000 
S63	 0.666508	 0.207234	 0.000000 
S64	 0.570283	 0.207234	 1.000000 
S65	 0.570283	 0.207234	 0.000000 
Mo66	 0.474058	 0.262789	 0.500000 
Mo67	 0.570283	 0.262789	 0.500000 
S68	 0.522171	 0.290567	 1.000000 
S69	 0.522171	 0.290567	 0.000000 
S70	 0.425946	 0.290567	 1.000000 
S71	 0.425946	 0.290567	 0.000000 
Mo72	 0.329721	 0.346123	 0.500000 
Mo73	 0.425946	 0.346123	 0.500000 
S74	 0.377833	 0.373900	 1.000000 
S75	 0.377833	 0.373900	 0.000000 
S76	 0.281608	 0.373900	 1.000000 
S77	 0.281608	 0.373900	 0.000000 
Mo78	 0.185383	 0.429456	 0.500000 
Mo79	 0.281608	 0.429456	 0.500000 
S80	 0.233496	 0.457234	 1.000000 
S81	 0.233496	 0.457234	 0.000000 
S82	 0.137271	 0.457234	 1.000000 
S83	 0.137271	 0.457234	 0.000000 
Mo84	 0.041045	 0.512789	 0.500000 
Mo85	 0.137271	 0.512789	 0.500000 
S86	 0.089158	 0.540567	 1.000000 
S87	 0.089158	 0.540567	 0.000000 
Mo88	 0.762733	 0.096123	 0.500000 
S89	 0.810846	 0.123900	 1.000000 
S90	 0.810846	 0.123900	 0.000000 
S91	 0.762733	 0.207234	 1.000000 
S92	 0.762733	 0.207234	 0.000000 
Mo93	 0.666508	 0.262789	 0.500000 
Mo94	 0.762733	 0.262789	 0.500000 
S95	 0.714621	 0.290567	 1.000000 
S96	 0.714621	 0.290567	 0.000000 
S97	 0.618396	 0.290567	 1.000000 
S98	 0.618396	 0.290567	 0.000000 
Mo99	 0.522171	 0.346123	 0.500000 
Mo100	 0.618396	 0.346123	 0.500000 
S101	 0.570283	 0.373900	 1.000000 
S102	 0.570283	 0.373900	 0.000000 
S103	 0.474058	 0.373900	 1.000000 
S104	 0.474058	 0.373900	 0.000000 
Mo105	 0.377833	 0.429456	 0.500000 
Mo106	 0.474058	 0.429456	 0.500000 
S107	 0.425946	 0.457234	 1.000000 
S108	 0.425946	 0.457234	 0.000000 
S109	 0.329721	 0.457234	 1.000000 
S110	 0.329721	 0.457234	 0.000000 
Mo111	 0.233496	 0.512789	 0.500000 
Mo112	 0.329721	 0.512789	 0.500000 
S113	 0.281608	 0.540567	 1.000000 
S114	 0.281608	 0.540567	 0.000000 
S115	 0.185383	 0.540567	 1.000000 
S116	 0.185383	 0.540567	 0.000000 
Mo117	 0.089158	 0.596123	 0.500000 
Mo118	 0.185383	 0.596123	 0.500000 
S119	 0.137271	 0.623900	 1.000000 
S120	 0.137271	 0.623900	 0.000000 
S121	 0.041045	 0.623900	 1.000000 
S122	 0.041045	 0.623900	 0.000000 
Mo123	 0.810846	 0.179456	 0.500000 
Mo124	 0.041045	 0.679456	 0.500000 
S125	 0.858958	 0.207234	 1.000000 
S126	 0.858958	 0.207234	 0.000000 
S127	 0.810846	 0.290567	 1.000000 
S128	 0.810846	 0.290567	 0.000000 
Mo129	 0.714621	 0.346123	 0.500000 
Mo130	 0.810846	 0.346123	 0.500000 
S131	 0.762733	 0.373900	 1.000000 
S132	 0.762733	 0.373900	 0.000000 
S133	 0.666508	 0.373900	 1.000000 
S134	 0.666508	 0.373900	 0.000000 
Mo135	 0.570283	 0.429456	 0.500000 
Mo136	 0.666508	 0.429456	 0.500000 
S137	 0.618396	 0.457234	 1.000000 
S138	 0.618396	 0.457234	 0.000000 
S139	 0.522171	 0.457234	 1.000000 
S140	 0.522171	 0.457234	 0.000000 
Mo141	 0.425946	 0.512789	 0.500000 
Mo142	 0.522171	 0.512789	 0.500000 
S143	 0.474058	 0.540567	 1.000000 
S144	 0.474058	 0.540567	 0.000000 
S145	 0.377833	 0.540567	 1.000000 
S146	 0.377833	 0.540567	 0.000000 
Mo147	 0.281608	 0.596123	 0.500000 
Mo148	 0.377833	 0.596123	 0.500000 
S149	 0.329721	 0.623900	 1.000000 
S150	 0.329721	 0.623900	 0.000000 
S151	 0.233496	 0.623900	 1.000000 
S152	 0.233496	 0.623900	 0.000000 
Mo153	 0.137271	 0.679456	 0.500000 
Mo154	 0.233496	 0.679456	 0.500000 
S155	 0.185383	 0.707234	 1.000000 
S156	 0.185383	 0.707234	 0.000000 
S157	 0.089158	 0.707234	 1.000000 
S158	 0.089158	 0.707234	 0.000000 
Mo159	 0.858958	 0.262789	 0.500000 
Mo160	 0.089158	 0.762789	 0.500000 
S161	 0.907071	 0.290567	 1.000000 
S162	 0.907071	 0.290567	 0.000000 
S163	 0.858958	 0.373900	 1.000000 
S164	 0.858958	 0.373900	 0.000000 
Mo165	 0.762733	 0.429456	 0.500000 
Mo166	 0.858958	 0.429456	 0.500000 
S167	 0.810846	 0.457234	 1.000000 
S168	 0.810846	 0.457234	 0.000000 
S169	 0.714621	 0.457234	 1.000000 
S170	 0.714621	 0.457234	 0.000000 
Mo171	 0.618396	 0.512789	 0.500000 
Mo172	 0.714621	 0.512789	 0.500000 
S173	 0.666508	 0.540567	 1.000000 
S174	 0.666508	 0.540567	 0.000000 
S175	 0.570283	 0.540567	 1.000000 
S176	 0.570283	 0.540567	 0.000000 
Mo177	 0.474058	 0.596123	 0.500000 
Mo178	 0.570283	 0.596123	 0.500000 
S179	 0.522171	 0.623900	 1.000000 
S180	 0.522171	 0.623900	 0.000000 
S181	 0.425946	 0.623900	 1.000000 
S182	 0.425946	 0.623900	 0.000000 
Mo183	 0.329721	 0.679456	 0.500000 
Mo184	 0.425946	 0.679456	 0.500000 
S185	 0.377833	 0.707234	 1.000000 
S186	 0.377833	 0.707234	 0.000000 
S187	 0.281608	 0.707234	 1.000000 
S188	 0.281608	 0.707234	 0.000000 
Mo189	 0.185383	 0.762789	 0.500000 
Mo190	 0.281608	 0.762789	 0.500000 
S191	 0.233496	 0.790567	 1.000000 
S192	 0.233496	 0.790567	 0.000000 
S193	 0.137271	 0.790567	 1.000000 
S194	 0.137271	 0.790567	 0.000000 
Mo195	 0.907071	 0.346123	 0.500000 
Mo196	 0.137271	 0.846123	 0.500000 
S197	 0.955183	 0.373900	 1.000000 
S198	 0.955183	 0.373900	 0.000000 
S199	 0.907071	 0.457234	 1.000000 
S200	 0.907071	 0.457234	 0.000000 
Mo201	 0.810846	 0.512789	 0.500000 
Mo202	 0.907071	 0.512789	 0.500000 
S203	 0.858958	 0.540567	 1.000000 
S204	 0.858958	 0.540567	 0.000000 
S205	 0.762733	 0.540567	 1.000000 
S206	 0.762733	 0.540567	 0.000000 
Mo207	 0.666508	 0.596123	 0.500000 
Mo208	 0.762733	 0.596123	 0.500000 
S209	 0.714621	 0.623900	 1.000000 
S210	 0.714621	 0.623900	 0.000000 
S211	 0.618396	 0.623900	 1.000000 
S212	 0.618396	 0.623900	 0.000000 
Mo213	 0.522171	 0.679456	 0.500000 
Mo214	 0.618396	 0.679456	 0.500000 
S215	 0.570283	 0.707234	 1.000000 
S216	 0.570283	 0.707234	 0.000000 
S217	 0.474058	 0.707234	 1.000000 
S218	 0.474058	 0.707234	 0.000000 
Mo219	 0.377833	 0.762789	 0.500000 
Mo220	 0.474058	 0.762789	 0.500000 
S221	 0.425946	 0.790567	 1.000000 
S222	 0.425946	 0.790567	 0.000000 
S223	 0.329721	 0.790567	 1.000000 
S224	 0.329721	 0.790567	 0.000000 
Mo225	 0.233496	 0.846123	 0.500000 
Mo226	 0.329721	 0.846123	 0.500000 
S227	 0.281608	 0.873900	 1.000000 
S228	 0.281608	 0.873900	 0.000000 
S229	 0.185383	 0.873900	 1.000000 
S230	 0.185383	 0.873900	 0.000000 
Mo231	 0.955183	 0.429456	 0.500000 
Mo232	 0.185383	 0.929456	 0.500000 
S233	 0.955183	 0.540567	 1.000000 
S234	 0.955183	 0.540567	 0.000000 
Mo235	 0.858958	 0.596123	 0.500000 
Mo236	 0.955183	 0.596123	 0.500000 
S237	 0.907071	 0.623900	 1.000000 
S238	 0.907071	 0.623900	 0.000000 
S239	 0.810846	 0.623900	 1.000000 
S240	 0.810846	 0.623900	 0.000000 
Mo241	 0.714621	 0.679456	 0.500000 
Mo242	 0.810846	 0.679456	 0.500000 
S243	 0.762733	 0.707234	 1.000000 
S244	 0.762733	 0.707234	 0.000000 
S245	 0.666508	 0.707234	 1.000000 
S246	 0.666508	 0.707234	 0.000000 
Mo247	 0.570283	 0.762789	 0.500000 
Mo248	 0.666508	 0.762789	 0.500000 
S249	 0.618396	 0.790567	 1.000000 
S250	 0.618396	 0.790567	 0.000000 
S251	 0.522171	 0.790567	 1.000000 
S252	 0.522171	 0.790567	 0.000000 
Mo253	 0.425946	 0.846123	 0.500000 
Mo254	 0.522171	 0.846123	 0.500000 
S255	 0.474058	 0.873900	 1.000000 
S256	 0.474058	 0.873900	 0.000000 
S257	 0.377833	 0.873900	 1.000000 
S258	 0.377833	 0.873900	 0.000000 
Mo259	 0.281608	 0.929456	 0.500000 
Mo260	 0.377833	 0.929456	 0.500000 
S261	 0.329721	 0.957234	 1.000000 
S262	 0.329721	 0.957234	 0.000000 
S263	 0.233496	 0.957234	 1.000000 
S264	 0.233496	 0.957234	 0.000000 
Mo265	 0.907071	 0.679456	 0.500000 
S266	 0.955183	 0.707234	 1.000000 
S267	 0.955183	 0.707234	 0.000000 
S268	 0.858958	 0.707234	 1.000000 
S269	 0.858958	 0.707234	 0.000000 
Mo270	 0.762733	 0.762789	 0.500000 
Mo271	 0.858958	 0.762789	 0.500000 
S272	 0.810846	 0.790567	 1.000000 
S273	 0.810846	 0.790567	 0.000000 
S274	 0.714621	 0.790567	 1.000000 
S275	 0.714621	 0.790567	 0.000000 
Mo276	 0.618396	 0.846123	 0.500000 
Mo277	 0.714621	 0.846123	 0.500000 
S278	 0.666508	 0.873900	 1.000000 
S279	 0.666508	 0.873900	 0.000000 
S280	 0.570283	 0.873900	 1.000000 
S281	 0.570283	 0.873900	 0.000000 
Mo282	 0.474058	 0.929456	 0.500000 
Mo283	 0.570283	 0.929456	 0.500000 
S284	 0.522171	 0.957234	 1.000000 
S285	 0.522171	 0.957234	 0.000000 
S286	 0.425946	 0.957234	 1.000000 
S287	 0.425946	 0.957234	 0.000000 
Mo288	 0.955183	 0.762789	 0.500000 
S289	 0.907071	 0.790567	 1.000000 
S290	 0.907071	 0.790567	 0.000000 
Mo291	 0.810846	 0.846123	 0.500000 
Mo292	 0.425946	 0.012789	 0.500000 
S293	 0.377833	 0.040567	 1.000000 
S294	 0.377833	 0.040567	 0.000000 
S295	 0.762733	 0.873900	 1.000000 
S296	 0.762733	 0.873900	 0.000000 
Mo297	 0.666508	 0.929456	 0.500000 
Mo298	 0.281608	 0.096123	 0.500000 
S299	 0.233496	 0.123900	 1.000000 
S300	 0.233496	 0.123900	 0.000000 
S301	 0.618396	 0.957234	 1.000000 
S302	 0.618396	 0.957234	 0.000000 
Mo303	 0.137271	 0.179456	 0.500000 
S304	 0.089158	 0.207234	 1.000000 
S305	 0.089158	 0.207234	 0.000000 
#                 ---end-of-data-block---
