data_Single Layer of MoS2nx 10 ny 6 nz 1
_cell_length_a               32.423991
_cell_length_b               32.423991
_cell_length_c               3.080000
_cell_angle_alpha          90.000000
_cell_angle_beta           90.000000
_cell_angle_gamma          90.000000
_symmetry_cell_setting          Triclinic
_symmetry_space_group_name_H-M 'P 1' 
loop_
_atom_site_label
_atom_site_fract_x
_atom_site_fract_y
_atom_site_fract_z
Mo1	 0.469175	 0.001975	 0.500000 
Mo2	 0.565400	 0.001975	 0.500000 
S3	 0.517287	 0.029753	 1.000000 
S4	 0.517287	 0.029753	 0.000000 
S5	 0.421062	 0.029753	 1.000000 
S6	 0.421062	 0.029753	 0.000000 
Mo7	 0.324837	 0.085308	 0.500000 
Mo8	 0.421062	 0.085308	 0.500000 
S9	 0.372950	 0.113086	 1.000000 
S10	 0.372950	 0.113086	 0.000000 
S11	 0.276725	 0.113086	 1.000000 
S12	 0.276725	 0.113086	 0.000000 
Mo13	 0.180500	 0.168642	 0.500000 
Mo14	 0.276725	 0.168642	 0.500000 
S15	 0.228612	 0.196419	 1.000000 
S16	 0.228612	 0.196419	 0.000000 
S17	 0.132387	 0.196419	 1.000000 
S18	 0.132387	 0.196419	 0.000000 
Mo19	 0.036162	 0.251975	 0.500000 
Mo20	 0.132387	 0.251975	 0.500000 
S21	 0.084275	 0.279753	 1.000000 
S22	 0.084275	 0.279753	 0.000000 
S23	 0.613512	 0.029753	 1.000000 
S24	 0.613512	 0.029753	 0.000000 
Mo25	 0.517287	 0.085308	 0.500000 
Mo26	 0.613512	 0.085308	 0.500000 
S27	 0.565400	 0.113086	 1.000000 
S28	 0.565400	 0.113086	 0.000000 
S29	 0.469175	 0.113086	 1.000000 
S30	 0.469175	 0.113086	 0.000000 
Mo31	 0.372950	 0.168642	 0.500000 
Mo32	 0.469175	 0.168642	 0.500000 
S33	 0.421062	 0.196419	 1.000000 
S34	 0.421062	 0.196419	 0.000000 
S35	 0.324837	 0.196419	 1.000000 
S36	 0.324837	 0.196419	 0.000000 
Mo37	 0.228612	 0.251975	 0.500000 
Mo38	 0.324837	 0.251975	 0.500000 
S39	 0.276725	 0.279753	 1.000000 
S40	 0.276725	 0.279753	 0.000000 
S41	 0.180500	 0.279753	 1.000000 
S42	 0.180500	 0.279753	 0.000000 
Mo43	 0.084275	 0.335308	 0.500000 
Mo44	 0.180500	 0.335308	 0.500000 
S45	 0.132387	 0.363086	 1.000000 
S46	 0.132387	 0.363086	 0.000000 
S47	 0.036162	 0.363086	 1.000000 
S48	 0.036162	 0.363086	 0.000000 
Mo49	 0.036162	 0.418642	 0.500000 
Mo50	 0.661625	 0.001975	 0.500000 
Mo51	 0.757850	 0.001975	 0.500000 
S52	 0.709737	 0.029753	 1.000000 
S53	 0.709737	 0.029753	 0.000000 
S54	 0.661625	 0.113086	 1.000000 
S55	 0.661625	 0.113086	 0.000000 
Mo56	 0.565400	 0.168642	 0.500000 
Mo57	 0.661625	 0.168642	 0.500000 
S58	 0.613512	 0.196419	 1.000000 
S59	 0.613512	 0.196419	 0.000000 
S60	 0.517287	 0.196419	 1.000000 
S61	 0.517287	 0.196419	 0.000000 
Mo62	 0.421062	 0.251975	 0.500000 
Mo63	 0.517287	 0.251975	 0.500000 
S64	 0.469175	 0.279753	 1.000000 
S65	 0.469175	 0.279753	 0.000000 
S66	 0.372950	 0.279753	 1.000000 
S67	 0.372950	 0.279753	 0.000000 
Mo68	 0.276725	 0.335308	 0.500000 
Mo69	 0.372950	 0.335308	 0.500000 
S70	 0.324837	 0.363086	 1.000000 
S71	 0.324837	 0.363086	 0.000000 
S72	 0.228612	 0.363086	 1.000000 
S73	 0.228612	 0.363086	 0.000000 
Mo74	 0.132387	 0.418642	 0.500000 
Mo75	 0.228612	 0.418642	 0.500000 
S76	 0.180500	 0.446419	 1.000000 
S77	 0.180500	 0.446419	 0.000000 
S78	 0.084275	 0.446419	 1.000000 
S79	 0.084275	 0.446419	 0.000000 
Mo80	 0.084275	 0.501975	 0.500000 
S81	 0.036162	 0.529753	 1.000000 
S82	 0.036162	 0.529753	 0.000000 
Mo83	 0.709737	 0.085308	 0.500000 
Mo84	 0.805963	 0.085308	 0.500000 
S85	 0.757850	 0.113086	 1.000000 
S86	 0.757850	 0.113086	 0.000000 
S87	 0.709737	 0.196419	 1.000000 
S88	 0.709737	 0.196419	 0.000000 
Mo89	 0.613512	 0.251975	 0.500000 
Mo90	 0.709737	 0.251975	 0.500000 
S91	 0.661625	 0.279753	 1.000000 
S92	 0.661625	 0.279753	 0.000000 
S93	 0.565400	 0.279753	 1.000000 
S94	 0.565400	 0.279753	 0.000000 
Mo95	 0.469175	 0.335308	 0.500000 
Mo96	 0.565400	 0.335308	 0.500000 
S97	 0.517287	 0.363086	 1.000000 
S98	 0.517287	 0.363086	 0.000000 
S99	 0.421062	 0.363086	 1.000000 
S100	 0.421062	 0.363086	 0.000000 
Mo101	 0.324837	 0.418642	 0.500000 
Mo102	 0.421062	 0.418642	 0.500000 
S103	 0.372950	 0.446419	 1.000000 
S104	 0.372950	 0.446419	 0.000000 
S105	 0.276725	 0.446419	 1.000000 
S106	 0.276725	 0.446419	 0.000000 
Mo107	 0.180500	 0.501975	 0.500000 
Mo108	 0.276725	 0.501975	 0.500000 
S109	 0.228612	 0.529753	 1.000000 
S110	 0.228612	 0.529753	 0.000000 
S111	 0.132387	 0.529753	 1.000000 
S112	 0.132387	 0.529753	 0.000000 
Mo113	 0.036162	 0.585308	 0.500000 
Mo114	 0.132387	 0.585308	 0.500000 
S115	 0.084275	 0.613086	 1.000000 
S116	 0.084275	 0.613086	 0.000000 
Mo117	 0.757850	 0.168642	 0.500000 
Mo118	 0.854075	 0.168642	 0.500000 
S119	 0.805963	 0.196419	 1.000000 
S120	 0.805963	 0.196419	 0.000000 
S121	 0.757850	 0.279753	 1.000000 
S122	 0.757850	 0.279753	 0.000000 
Mo123	 0.661625	 0.335308	 0.500000 
Mo124	 0.757850	 0.335308	 0.500000 
S125	 0.709737	 0.363086	 1.000000 
S126	 0.709737	 0.363086	 0.000000 
S127	 0.613512	 0.363086	 1.000000 
S128	 0.613512	 0.363086	 0.000000 
Mo129	 0.517287	 0.418642	 0.500000 
Mo130	 0.613512	 0.418642	 0.500000 
S131	 0.565400	 0.446419	 1.000000 
S132	 0.565400	 0.446419	 0.000000 
S133	 0.469175	 0.446419	 1.000000 
S134	 0.469175	 0.446419	 0.000000 
Mo135	 0.372950	 0.501975	 0.500000 
Mo136	 0.469175	 0.501975	 0.500000 
S137	 0.421062	 0.529753	 1.000000 
S138	 0.421062	 0.529753	 0.000000 
S139	 0.324837	 0.529753	 1.000000 
S140	 0.324837	 0.529753	 0.000000 
Mo141	 0.228612	 0.585308	 0.500000 
Mo142	 0.324837	 0.585308	 0.500000 
S143	 0.276725	 0.613086	 1.000000 
S144	 0.276725	 0.613086	 0.000000 
S145	 0.180500	 0.613086	 1.000000 
S146	 0.180500	 0.613086	 0.000000 
Mo147	 0.084275	 0.668642	 0.500000 
Mo148	 0.180500	 0.668642	 0.500000 
S149	 0.132387	 0.696419	 1.000000 
S150	 0.132387	 0.696419	 0.000000 
S151	 0.036162	 0.696419	 1.000000 
S152	 0.036162	 0.696419	 0.000000 
Mo153	 0.805963	 0.251975	 0.500000 
Mo154	 0.902188	 0.251975	 0.500000 
S155	 0.854075	 0.279753	 1.000000 
S156	 0.854075	 0.279753	 0.000000 
S157	 0.805963	 0.363086	 1.000000 
S158	 0.805963	 0.363086	 0.000000 
Mo159	 0.709737	 0.418642	 0.500000 
Mo160	 0.805963	 0.418642	 0.500000 
S161	 0.757850	 0.446419	 1.000000 
S162	 0.757850	 0.446419	 0.000000 
S163	 0.661625	 0.446419	 1.000000 
S164	 0.661625	 0.446419	 0.000000 
Mo165	 0.565400	 0.501975	 0.500000 
Mo166	 0.661625	 0.501975	 0.500000 
S167	 0.613512	 0.529753	 1.000000 
S168	 0.613512	 0.529753	 0.000000 
S169	 0.517287	 0.529753	 1.000000 
S170	 0.517287	 0.529753	 0.000000 
Mo171	 0.421062	 0.585308	 0.500000 
Mo172	 0.517287	 0.585308	 0.500000 
S173	 0.469175	 0.613086	 1.000000 
S174	 0.469175	 0.613086	 0.000000 
S175	 0.372950	 0.613086	 1.000000 
S176	 0.372950	 0.613086	 0.000000 
Mo177	 0.276725	 0.668642	 0.500000 
Mo178	 0.372950	 0.668642	 0.500000 
S179	 0.324837	 0.696419	 1.000000 
S180	 0.324837	 0.696419	 0.000000 
S181	 0.228612	 0.696419	 1.000000 
S182	 0.228612	 0.696419	 0.000000 
Mo183	 0.132387	 0.751975	 0.500000 
Mo184	 0.228612	 0.751975	 0.500000 
S185	 0.180500	 0.779753	 1.000000 
S186	 0.180500	 0.779753	 0.000000 
S187	 0.084275	 0.779753	 1.000000 
S188	 0.084275	 0.779753	 0.000000 
Mo189	 0.854075	 0.335308	 0.500000 
Mo190	 0.950300	 0.335308	 0.500000 
S191	 0.902188	 0.363086	 1.000000 
S192	 0.902188	 0.363086	 0.000000 
S193	 0.854075	 0.446419	 1.000000 
S194	 0.854075	 0.446419	 0.000000 
Mo195	 0.757850	 0.501975	 0.500000 
Mo196	 0.854075	 0.501975	 0.500000 
S197	 0.805963	 0.529753	 1.000000 
S198	 0.805963	 0.529753	 0.000000 
S199	 0.709737	 0.529753	 1.000000 
S200	 0.709737	 0.529753	 0.000000 
Mo201	 0.613512	 0.585308	 0.500000 
Mo202	 0.709737	 0.585308	 0.500000 
S203	 0.661625	 0.613086	 1.000000 
S204	 0.661625	 0.613086	 0.000000 
S205	 0.565400	 0.613086	 1.000000 
S206	 0.565400	 0.613086	 0.000000 
Mo207	 0.469175	 0.668642	 0.500000 
Mo208	 0.565400	 0.668642	 0.500000 
S209	 0.517287	 0.696419	 1.000000 
S210	 0.517287	 0.696419	 0.000000 
S211	 0.421062	 0.696419	 1.000000 
S212	 0.421062	 0.696419	 0.000000 
Mo213	 0.324837	 0.751975	 0.500000 
Mo214	 0.421062	 0.751975	 0.500000 
S215	 0.372950	 0.779753	 1.000000 
S216	 0.372950	 0.779753	 0.000000 
S217	 0.276725	 0.779753	 1.000000 
S218	 0.276725	 0.779753	 0.000000 
Mo219	 0.180500	 0.835308	 0.500000 
Mo220	 0.276725	 0.835308	 0.500000 
S221	 0.228612	 0.863086	 1.000000 
S222	 0.228612	 0.863086	 0.000000 
S223	 0.132387	 0.863086	 1.000000 
S224	 0.132387	 0.863086	 0.000000 
Mo225	 0.902188	 0.418642	 0.500000 
Mo226	 0.998413	 0.418642	 0.500000 
S227	 0.950300	 0.446419	 1.000000 
S228	 0.950300	 0.446419	 0.000000 
S229	 0.902188	 0.529753	 1.000000 
S230	 0.902188	 0.529753	 0.000000 
Mo231	 0.805963	 0.585308	 0.500000 
Mo232	 0.902188	 0.585308	 0.500000 
S233	 0.854075	 0.613086	 1.000000 
S234	 0.854075	 0.613086	 0.000000 
S235	 0.757850	 0.613086	 1.000000 
S236	 0.757850	 0.613086	 0.000000 
Mo237	 0.661625	 0.668642	 0.500000 
Mo238	 0.757850	 0.668642	 0.500000 
S239	 0.709737	 0.696419	 1.000000 
S240	 0.709737	 0.696419	 0.000000 
S241	 0.613512	 0.696419	 1.000000 
S242	 0.613512	 0.696419	 0.000000 
Mo243	 0.517287	 0.751975	 0.500000 
Mo244	 0.613512	 0.751975	 0.500000 
S245	 0.565400	 0.779753	 1.000000 
S246	 0.565400	 0.779753	 0.000000 
S247	 0.469175	 0.779753	 1.000000 
S248	 0.469175	 0.779753	 0.000000 
Mo249	 0.372950	 0.835308	 0.500000 
Mo250	 0.469175	 0.835308	 0.500000 
S251	 0.421062	 0.863086	 1.000000 
S252	 0.421062	 0.863086	 0.000000 
S253	 0.324837	 0.863086	 1.000000 
S254	 0.324837	 0.863086	 0.000000 
Mo255	 0.228612	 0.918642	 0.500000 
Mo256	 0.324837	 0.918642	 0.500000 
S257	 0.276725	 0.946419	 1.000000 
S258	 0.276725	 0.946419	 0.000000 
S259	 0.180500	 0.946419	 1.000000 
S260	 0.180500	 0.946419	 0.000000 
Mo261	 0.950300	 0.501975	 0.500000 
S262	 0.998413	 0.529753	 1.000000 
S263	 0.998413	 0.529753	 0.000000 
S264	 0.950300	 0.613086	 1.000000 
S265	 0.950300	 0.613086	 0.000000 
Mo266	 0.854075	 0.668642	 0.500000 
Mo267	 0.950300	 0.668642	 0.500000 
S268	 0.902188	 0.696419	 1.000000 
S269	 0.902188	 0.696419	 0.000000 
S270	 0.805963	 0.696419	 1.000000 
S271	 0.805963	 0.696419	 0.000000 
Mo272	 0.709737	 0.751975	 0.500000 
Mo273	 0.805963	 0.751975	 0.500000 
S274	 0.757850	 0.779753	 1.000000 
S275	 0.757850	 0.779753	 0.000000 
S276	 0.661625	 0.779753	 1.000000 
S277	 0.661625	 0.779753	 0.000000 
Mo278	 0.565400	 0.835308	 0.500000 
Mo279	 0.661625	 0.835308	 0.500000 
S280	 0.613512	 0.863086	 1.000000 
S281	 0.613512	 0.863086	 0.000000 
S282	 0.517287	 0.863086	 1.000000 
S283	 0.517287	 0.863086	 0.000000 
Mo284	 0.421062	 0.918642	 0.500000 
Mo285	 0.517287	 0.918642	 0.500000 
S286	 0.469175	 0.946419	 1.000000 
S287	 0.469175	 0.946419	 0.000000 
S288	 0.372950	 0.946419	 1.000000 
S289	 0.372950	 0.946419	 0.000000 
Mo290	 0.998413	 0.585308	 0.500000 
S291	 0.998413	 0.696419	 1.000000 
S292	 0.998413	 0.696419	 0.000000 
Mo293	 0.902188	 0.751975	 0.500000 
Mo294	 0.998413	 0.751975	 0.500000 
S295	 0.950300	 0.779753	 1.000000 
S296	 0.950300	 0.779753	 0.000000 
S297	 0.854075	 0.779753	 1.000000 
S298	 0.854075	 0.779753	 0.000000 
Mo299	 0.757850	 0.835308	 0.500000 
Mo300	 0.854075	 0.835308	 0.500000 
S301	 0.805963	 0.863086	 1.000000 
S302	 0.805963	 0.863086	 0.000000 
S303	 0.709737	 0.863086	 1.000000 
S304	 0.709737	 0.863086	 0.000000 
Mo305	 0.613512	 0.918642	 0.500000 
Mo306	 0.709737	 0.918642	 0.500000 
S307	 0.661625	 0.946419	 1.000000 
S308	 0.661625	 0.946419	 0.000000 
S309	 0.565400	 0.946419	 1.000000 
S310	 0.565400	 0.946419	 0.000000 
#                 ---end-of-data-block---
