data_Single Layer of MoS2nx 10 ny 6 nz 1
_cell_length_a               32.423991
_cell_length_b               32.423991
_cell_length_c               3.080000
_cell_angle_alpha          90.000000
_cell_angle_beta           90.000000
_cell_angle_gamma          90.000000
_symmetry_cell_setting          Triclinic
_symmetry_space_group_name_H-M 'P 1' 
loop_
_atom_site_label
_atom_site_fract_x
_atom_site_fract_y
_atom_site_fract_z
S1	 0.313247	 0.016921	 1.000000 
S2	 0.313247	 0.016921	 0.000000 
Mo3	 0.234679	 0.095488	 0.500000 
Mo4	 0.327625	 0.070583	 0.500000 
S5	 0.288342	 0.109867	 1.000000 
S6	 0.288342	 0.109867	 0.000000 
S7	 0.195395	 0.134772	 1.000000 
S8	 0.195395	 0.134772	 0.000000 
Mo9	 0.116828	 0.213339	 0.500000 
Mo10	 0.209774	 0.188434	 0.500000 
S11	 0.170491	 0.227718	 1.000000 
S12	 0.170491	 0.227718	 0.000000 
S13	 0.077544	 0.252623	 1.000000 
S14	 0.077544	 0.252623	 0.000000 
Mo15	 0.091923	 0.306286	 0.500000 
S16	 0.052639	 0.345569	 1.000000 
S17	 0.052639	 0.345569	 0.000000 
Mo18	 0.420572	 0.045678	 0.500000 
Mo19	 0.513518	 0.020774	 0.500000 
S20	 0.474234	 0.060057	 1.000000 
S21	 0.474234	 0.060057	 0.000000 
S22	 0.381288	 0.084962	 1.000000 
S23	 0.381288	 0.084962	 0.000000 
Mo24	 0.302721	 0.163530	 0.500000 
Mo25	 0.395667	 0.138625	 0.500000 
S26	 0.356383	 0.177908	 1.000000 
S27	 0.356383	 0.177908	 0.000000 
S28	 0.263437	 0.202813	 1.000000 
S29	 0.263437	 0.202813	 0.000000 
Mo30	 0.184869	 0.281381	 0.500000 
Mo31	 0.277816	 0.256476	 0.500000 
S32	 0.238532	 0.295760	 1.000000 
S33	 0.238532	 0.295760	 0.000000 
S34	 0.145586	 0.320664	 1.000000 
S35	 0.145586	 0.320664	 0.000000 
Mo36	 0.067018	 0.399232	 0.500000 
Mo37	 0.159965	 0.374327	 0.500000 
S38	 0.120681	 0.413611	 1.000000 
S39	 0.120681	 0.413611	 0.000000 
S40	 0.027735	 0.438516	 1.000000 
S41	 0.027735	 0.438516	 0.000000 
Mo42	 0.042113	 0.492178	 0.500000 
S43	 0.002830	 0.531462	 1.000000 
S44	 0.002830	 0.531462	 0.000000 
S45	 0.567180	 0.035152	 1.000000 
S46	 0.567180	 0.035152	 0.000000 
Mo47	 0.488613	 0.113720	 0.500000 
Mo48	 0.581559	 0.088815	 0.500000 
S49	 0.542276	 0.128099	 1.000000 
S50	 0.542276	 0.128099	 0.000000 
S51	 0.449329	 0.153004	 1.000000 
S52	 0.449329	 0.153004	 0.000000 
Mo53	 0.370762	 0.231571	 0.500000 
Mo54	 0.463708	 0.206666	 0.500000 
S55	 0.424424	 0.245950	 1.000000 
S56	 0.424424	 0.245950	 0.000000 
S57	 0.331478	 0.270855	 1.000000 
S58	 0.331478	 0.270855	 0.000000 
Mo59	 0.252911	 0.349422	 0.500000 
Mo60	 0.345857	 0.324517	 0.500000 
S61	 0.306573	 0.363801	 1.000000 
S62	 0.306573	 0.363801	 0.000000 
S63	 0.213627	 0.388706	 1.000000 
S64	 0.213627	 0.388706	 0.000000 
Mo65	 0.135060	 0.467273	 0.500000 
Mo66	 0.228006	 0.442368	 0.500000 
S67	 0.188722	 0.481652	 1.000000 
S68	 0.188722	 0.481652	 0.000000 
S69	 0.095776	 0.506557	 1.000000 
S70	 0.095776	 0.506557	 0.000000 
Mo71	 0.017208	 0.585124	 0.500000 
Mo72	 0.110155	 0.560219	 0.500000 
S73	 0.070871	 0.599503	 1.000000 
S74	 0.070871	 0.599503	 0.000000 
S75	 0.660127	 0.010248	 1.000000 
S76	 0.660127	 0.010248	 0.000000 
S77	 0.635222	 0.103194	 1.000000 
S78	 0.635222	 0.103194	 0.000000 
Mo79	 0.556654	 0.181761	 0.500000 
Mo80	 0.649601	 0.156856	 0.500000 
S81	 0.610317	 0.196140	 1.000000 
S82	 0.610317	 0.196140	 0.000000 
S83	 0.517371	 0.221045	 1.000000 
S84	 0.517371	 0.221045	 0.000000 
Mo85	 0.438803	 0.299612	 0.500000 
Mo86	 0.531750	 0.274707	 0.500000 
S87	 0.492466	 0.313991	 1.000000 
S88	 0.492466	 0.313991	 0.000000 
S89	 0.399520	 0.338896	 1.000000 
S90	 0.399520	 0.338896	 0.000000 
Mo91	 0.320952	 0.417463	 0.500000 
Mo92	 0.413898	 0.392559	 0.500000 
S93	 0.374615	 0.431842	 1.000000 
S94	 0.374615	 0.431842	 0.000000 
S95	 0.281668	 0.456747	 1.000000 
S96	 0.281668	 0.456747	 0.000000 
Mo97	 0.203101	 0.535315	 0.500000 
Mo98	 0.296047	 0.510410	 0.500000 
S99	 0.256764	 0.549693	 1.000000 
S100	 0.256764	 0.549693	 0.000000 
S101	 0.163817	 0.574598	 1.000000 
S102	 0.163817	 0.574598	 0.000000 
Mo103	 0.085250	 0.653166	 0.500000 
Mo104	 0.178196	 0.628261	 0.500000 
S105	 0.138912	 0.667545	 1.000000 
S106	 0.138912	 0.667545	 0.000000 
S107	 0.045966	 0.692449	 1.000000 
S108	 0.045966	 0.692449	 0.000000 
Mo109	 0.674506	 0.063910	 0.500000 
Mo110	 0.060345	 0.746112	 0.500000 
S111	 0.728168	 0.078289	 1.000000 
S112	 0.728168	 0.078289	 0.000000 
S113	 0.703263	 0.171235	 1.000000 
S114	 0.703263	 0.171235	 0.000000 
Mo115	 0.624696	 0.249803	 0.500000 
Mo116	 0.717642	 0.224898	 0.500000 
S117	 0.678358	 0.264181	 1.000000 
S118	 0.678358	 0.264181	 0.000000 
S119	 0.585412	 0.289086	 1.000000 
S120	 0.585412	 0.289086	 0.000000 
Mo121	 0.506845	 0.367654	 0.500000 
Mo122	 0.599791	 0.342749	 0.500000 
S123	 0.560507	 0.382033	 1.000000 
S124	 0.560507	 0.382033	 0.000000 
S125	 0.467561	 0.406937	 1.000000 
S126	 0.467561	 0.406937	 0.000000 
Mo127	 0.388994	 0.485505	 0.500000 
Mo128	 0.481940	 0.460600	 0.500000 
S129	 0.442656	 0.499884	 1.000000 
S130	 0.442656	 0.499884	 0.000000 
S131	 0.349710	 0.524789	 1.000000 
S132	 0.349710	 0.524789	 0.000000 
Mo133	 0.271142	 0.603356	 0.500000 
Mo134	 0.364089	 0.578451	 0.500000 
S135	 0.324805	 0.617735	 1.000000 
S136	 0.324805	 0.617735	 0.000000 
S137	 0.231859	 0.642640	 1.000000 
S138	 0.231859	 0.642640	 0.000000 
Mo139	 0.153291	 0.721207	 0.500000 
Mo140	 0.246238	 0.696302	 0.500000 
S141	 0.206954	 0.735586	 1.000000 
S142	 0.206954	 0.735586	 0.000000 
S143	 0.114008	 0.760491	 1.000000 
S144	 0.114008	 0.760491	 0.000000 
Mo145	 0.742547	 0.131951	 0.500000 
Mo146	 0.128386	 0.814153	 0.500000 
S147	 0.796209	 0.146330	 1.000000 
S148	 0.796209	 0.146330	 0.000000 
S149	 0.771305	 0.239277	 1.000000 
S150	 0.771305	 0.239277	 0.000000 
Mo151	 0.692737	 0.317844	 0.500000 
Mo152	 0.785683	 0.292939	 0.500000 
S153	 0.746400	 0.332223	 1.000000 
S154	 0.746400	 0.332223	 0.000000 
S155	 0.653453	 0.357128	 1.000000 
S156	 0.653453	 0.357128	 0.000000 
Mo157	 0.574886	 0.435695	 0.500000 
Mo158	 0.667832	 0.410790	 0.500000 
S159	 0.628549	 0.450074	 1.000000 
S160	 0.628549	 0.450074	 0.000000 
S161	 0.535602	 0.474979	 1.000000 
S162	 0.535602	 0.474979	 0.000000 
Mo163	 0.457035	 0.553546	 0.500000 
Mo164	 0.549981	 0.528641	 0.500000 
S165	 0.510697	 0.567925	 1.000000 
S166	 0.510697	 0.567925	 0.000000 
S167	 0.417751	 0.592830	 1.000000 
S168	 0.417751	 0.592830	 0.000000 
Mo169	 0.339184	 0.671397	 0.500000 
Mo170	 0.432130	 0.646492	 0.500000 
S171	 0.392846	 0.685776	 1.000000 
S172	 0.392846	 0.685776	 0.000000 
S173	 0.299900	 0.710681	 1.000000 
S174	 0.299900	 0.710681	 0.000000 
Mo175	 0.221333	 0.789248	 0.500000 
Mo176	 0.314279	 0.764344	 0.500000 
S177	 0.274995	 0.803627	 1.000000 
S178	 0.274995	 0.803627	 0.000000 
S179	 0.182049	 0.828532	 1.000000 
S180	 0.182049	 0.828532	 0.000000 
Mo181	 0.810588	 0.199993	 0.500000 
Mo182	 0.196428	 0.882195	 0.500000 
S183	 0.864251	 0.214372	 1.000000 
S184	 0.864251	 0.214372	 0.000000 
S185	 0.839346	 0.307318	 1.000000 
S186	 0.839346	 0.307318	 0.000000 
Mo187	 0.760779	 0.385885	 0.500000 
Mo188	 0.853725	 0.360980	 0.500000 
S189	 0.814441	 0.400264	 1.000000 
S190	 0.814441	 0.400264	 0.000000 
S191	 0.721495	 0.425169	 1.000000 
S192	 0.721495	 0.425169	 0.000000 
Mo193	 0.642927	 0.503736	 0.500000 
Mo194	 0.735874	 0.478832	 0.500000 
S195	 0.696590	 0.518115	 1.000000 
S196	 0.696590	 0.518115	 0.000000 
S197	 0.603644	 0.543020	 1.000000 
S198	 0.603644	 0.543020	 0.000000 
Mo199	 0.525076	 0.621588	 0.500000 
Mo200	 0.618023	 0.596683	 0.500000 
S201	 0.578739	 0.635966	 1.000000 
S202	 0.578739	 0.635966	 0.000000 
S203	 0.485793	 0.660871	 1.000000 
S204	 0.485793	 0.660871	 0.000000 
Mo205	 0.407225	 0.739439	 0.500000 
Mo206	 0.500171	 0.714534	 0.500000 
S207	 0.460888	 0.753818	 1.000000 
S208	 0.460888	 0.753818	 0.000000 
S209	 0.367941	 0.778722	 1.000000 
S210	 0.367941	 0.778722	 0.000000 
Mo211	 0.289374	 0.857290	 0.500000 
Mo212	 0.382320	 0.832385	 0.500000 
S213	 0.343037	 0.871669	 1.000000 
S214	 0.343037	 0.871669	 0.000000 
S215	 0.250090	 0.896574	 1.000000 
S216	 0.250090	 0.896574	 0.000000 
Mo217	 0.878630	 0.268034	 0.500000 
Mo218	 0.264469	 0.950236	 0.500000 
S219	 0.932292	 0.282413	 1.000000 
S220	 0.932292	 0.282413	 0.000000 
S221	 0.907387	 0.375359	 1.000000 
S222	 0.907387	 0.375359	 0.000000 
Mo223	 0.828820	 0.453927	 0.500000 
Mo224	 0.921766	 0.429022	 0.500000 
S225	 0.882482	 0.468306	 1.000000 
S226	 0.882482	 0.468306	 0.000000 
S227	 0.789536	 0.493210	 1.000000 
S228	 0.789536	 0.493210	 0.000000 
Mo229	 0.710969	 0.571778	 0.500000 
Mo230	 0.803915	 0.546873	 0.500000 
S231	 0.764631	 0.586157	 1.000000 
S232	 0.764631	 0.586157	 0.000000 
S233	 0.671685	 0.611062	 1.000000 
S234	 0.671685	 0.611062	 0.000000 
Mo235	 0.593118	 0.689629	 0.500000 
Mo236	 0.686064	 0.664724	 0.500000 
S237	 0.646780	 0.704008	 1.000000 
S238	 0.646780	 0.704008	 0.000000 
S239	 0.553834	 0.728913	 1.000000 
S240	 0.553834	 0.728913	 0.000000 
Mo241	 0.475267	 0.807480	 0.500000 
Mo242	 0.568213	 0.782575	 0.500000 
S243	 0.528929	 0.821859	 1.000000 
S244	 0.528929	 0.821859	 0.000000 
S245	 0.435983	 0.846764	 1.000000 
S246	 0.435983	 0.846764	 0.000000 
Mo247	 0.357415	 0.925331	 0.500000 
Mo248	 0.450362	 0.900426	 0.500000 
S249	 0.411078	 0.939710	 1.000000 
S250	 0.411078	 0.939710	 0.000000 
S251	 0.318132	 0.964615	 1.000000 
S252	 0.318132	 0.964615	 0.000000 
Mo253	 0.946671	 0.336076	 0.500000 
S254	 0.975429	 0.443401	 1.000000 
S255	 0.975429	 0.443401	 0.000000 
Mo256	 0.896861	 0.521968	 0.500000 
Mo257	 0.989808	 0.497063	 0.500000 
S258	 0.950524	 0.536347	 1.000000 
S259	 0.950524	 0.536347	 0.000000 
S260	 0.857578	 0.561252	 1.000000 
S261	 0.857578	 0.561252	 0.000000 
Mo262	 0.779010	 0.639819	 0.500000 
Mo263	 0.871956	 0.614914	 0.500000 
S264	 0.832673	 0.654198	 1.000000 
S265	 0.832673	 0.654198	 0.000000 
S266	 0.739726	 0.679103	 1.000000 
S267	 0.739726	 0.679103	 0.000000 
Mo268	 0.661159	 0.757670	 0.500000 
Mo269	 0.754105	 0.732766	 0.500000 
S270	 0.714822	 0.772049	 1.000000 
S271	 0.714822	 0.772049	 0.000000 
S272	 0.621875	 0.796954	 1.000000 
S273	 0.621875	 0.796954	 0.000000 
Mo274	 0.543308	 0.875522	 0.500000 
Mo275	 0.636254	 0.850617	 0.500000 
S276	 0.596970	 0.889900	 1.000000 
S277	 0.596970	 0.889900	 0.000000 
S278	 0.504024	 0.914805	 1.000000 
S279	 0.504024	 0.914805	 0.000000 
Mo280	 0.425457	 0.993373	 0.500000 
Mo281	 0.518403	 0.968468	 0.500000 
Mo282	 0.964903	 0.590010	 0.500000 
S283	 0.925619	 0.629293	 1.000000 
S284	 0.925619	 0.629293	 0.000000 
Mo285	 0.847052	 0.707861	 0.500000 
Mo286	 0.939998	 0.682956	 0.500000 
S287	 0.900714	 0.722239	 1.000000 
S288	 0.900714	 0.722239	 0.000000 
S289	 0.807768	 0.747144	 1.000000 
S290	 0.807768	 0.747144	 0.000000 
Mo291	 0.729200	 0.825712	 0.500000 
Mo292	 0.822147	 0.800807	 0.500000 
S293	 0.782863	 0.840091	 1.000000 
S294	 0.782863	 0.840091	 0.000000 
S295	 0.689917	 0.864995	 1.000000 
S296	 0.689917	 0.864995	 0.000000 
Mo297	 0.611349	 0.943563	 0.500000 
Mo298	 0.704296	 0.918658	 0.500000 
S299	 0.665012	 0.957942	 1.000000 
S300	 0.665012	 0.957942	 0.000000 
S301	 0.572066	 0.982847	 1.000000 
S302	 0.572066	 0.982847	 0.000000 
#                 ---end-of-data-block---
