data_Single Layer of MoS2nx 10 ny 6 nz 1
_cell_length_a               32.423991
_cell_length_b               32.423991
_cell_length_c               3.080000
_cell_angle_alpha          90.000000
_cell_angle_beta           90.000000
_cell_angle_gamma          90.000000
_symmetry_cell_setting          Triclinic
_symmetry_space_group_name_H-M 'P 1' 
loop_
_atom_site_label
_atom_site_fract_x
_atom_site_fract_y
_atom_site_fract_z
S1	 0.503989	 0.020934	 1.000000 
S2	 0.503989	 0.020934	 0.000000 
S3	 0.407764	 0.020934	 1.000000 
S4	 0.407764	 0.020934	 0.000000 
Mo5	 0.311539	 0.076490	 0.500000 
Mo6	 0.407764	 0.076490	 0.500000 
S7	 0.359651	 0.104267	 1.000000 
S8	 0.359651	 0.104267	 0.000000 
S9	 0.263426	 0.104267	 1.000000 
S10	 0.263426	 0.104267	 0.000000 
Mo11	 0.167201	 0.159823	 0.500000 
Mo12	 0.263426	 0.159823	 0.500000 
S13	 0.215314	 0.187601	 1.000000 
S14	 0.215314	 0.187601	 0.000000 
S15	 0.119089	 0.187601	 1.000000 
S16	 0.119089	 0.187601	 0.000000 
Mo17	 0.022864	 0.243156	 0.500000 
Mo18	 0.119089	 0.243156	 0.500000 
S19	 0.070976	 0.270934	 1.000000 
S20	 0.070976	 0.270934	 0.000000 
S21	 0.696439	 0.020934	 1.000000 
S22	 0.696439	 0.020934	 0.000000 
S23	 0.600214	 0.020934	 1.000000 
S24	 0.600214	 0.020934	 0.000000 
Mo25	 0.503989	 0.076490	 0.500000 
Mo26	 0.600214	 0.076490	 0.500000 
S27	 0.552101	 0.104267	 1.000000 
S28	 0.552101	 0.104267	 0.000000 
S29	 0.455876	 0.104267	 1.000000 
S30	 0.455876	 0.104267	 0.000000 
Mo31	 0.359651	 0.159823	 0.500000 
Mo32	 0.455876	 0.159823	 0.500000 
S33	 0.407764	 0.187601	 1.000000 
S34	 0.407764	 0.187601	 0.000000 
S35	 0.311539	 0.187601	 1.000000 
S36	 0.311539	 0.187601	 0.000000 
Mo37	 0.215314	 0.243156	 0.500000 
Mo38	 0.311539	 0.243156	 0.500000 
S39	 0.263426	 0.270934	 1.000000 
S40	 0.263426	 0.270934	 0.000000 
S41	 0.167201	 0.270934	 1.000000 
S42	 0.167201	 0.270934	 0.000000 
Mo43	 0.070976	 0.326490	 0.500000 
Mo44	 0.167201	 0.326490	 0.500000 
S45	 0.119089	 0.354267	 1.000000 
S46	 0.119089	 0.354267	 0.000000 
S47	 0.022864	 0.354267	 1.000000 
S48	 0.022864	 0.354267	 0.000000 
Mo49	 0.022864	 0.409823	 0.500000 
S50	 0.792664	 0.020934	 1.000000 
S51	 0.792664	 0.020934	 0.000000 
Mo52	 0.696439	 0.076490	 0.500000 
Mo53	 0.792664	 0.076490	 0.500000 
S54	 0.744552	 0.104267	 1.000000 
S55	 0.744552	 0.104267	 0.000000 
S56	 0.648326	 0.104267	 1.000000 
S57	 0.648326	 0.104267	 0.000000 
Mo58	 0.552101	 0.159823	 0.500000 
Mo59	 0.648326	 0.159823	 0.500000 
S60	 0.600214	 0.187601	 1.000000 
S61	 0.600214	 0.187601	 0.000000 
S62	 0.503989	 0.187601	 1.000000 
S63	 0.503989	 0.187601	 0.000000 
Mo64	 0.407764	 0.243156	 0.500000 
Mo65	 0.503989	 0.243156	 0.500000 
S66	 0.455876	 0.270934	 1.000000 
S67	 0.455876	 0.270934	 0.000000 
S68	 0.359651	 0.270934	 1.000000 
S69	 0.359651	 0.270934	 0.000000 
Mo70	 0.263426	 0.326490	 0.500000 
Mo71	 0.359651	 0.326490	 0.500000 
S72	 0.311539	 0.354267	 1.000000 
S73	 0.311539	 0.354267	 0.000000 
S74	 0.215314	 0.354267	 1.000000 
S75	 0.215314	 0.354267	 0.000000 
Mo76	 0.119089	 0.409823	 0.500000 
Mo77	 0.215314	 0.409823	 0.500000 
S78	 0.167201	 0.437601	 1.000000 
S79	 0.167201	 0.437601	 0.000000 
S80	 0.070976	 0.437601	 1.000000 
S81	 0.070976	 0.437601	 0.000000 
Mo82	 0.070976	 0.493156	 0.500000 
S83	 0.022864	 0.520934	 1.000000 
S84	 0.022864	 0.520934	 0.000000 
S85	 0.840777	 0.104267	 1.000000 
S86	 0.840777	 0.104267	 0.000000 
Mo87	 0.744552	 0.159823	 0.500000 
Mo88	 0.840777	 0.159823	 0.500000 
S89	 0.792664	 0.187601	 1.000000 
S90	 0.792664	 0.187601	 0.000000 
S91	 0.696439	 0.187601	 1.000000 
S92	 0.696439	 0.187601	 0.000000 
Mo93	 0.600214	 0.243156	 0.500000 
Mo94	 0.696439	 0.243156	 0.500000 
S95	 0.648326	 0.270934	 1.000000 
S96	 0.648326	 0.270934	 0.000000 
S97	 0.552101	 0.270934	 1.000000 
S98	 0.552101	 0.270934	 0.000000 
Mo99	 0.455876	 0.326490	 0.500000 
Mo100	 0.552101	 0.326490	 0.500000 
S101	 0.503989	 0.354267	 1.000000 
S102	 0.503989	 0.354267	 0.000000 
S103	 0.407764	 0.354267	 1.000000 
S104	 0.407764	 0.354267	 0.000000 
Mo105	 0.311539	 0.409823	 0.500000 
Mo106	 0.407764	 0.409823	 0.500000 
S107	 0.359651	 0.437601	 1.000000 
S108	 0.359651	 0.437601	 0.000000 
S109	 0.263426	 0.437601	 1.000000 
S110	 0.263426	 0.437601	 0.000000 
Mo111	 0.167201	 0.493156	 0.500000 
Mo112	 0.263426	 0.493156	 0.500000 
S113	 0.215314	 0.520934	 1.000000 
S114	 0.215314	 0.520934	 0.000000 
S115	 0.119089	 0.520934	 1.000000 
S116	 0.119089	 0.520934	 0.000000 
Mo117	 0.022864	 0.576490	 0.500000 
Mo118	 0.119089	 0.576490	 0.500000 
S119	 0.070976	 0.604267	 1.000000 
S120	 0.070976	 0.604267	 0.000000 
S121	 0.888889	 0.187601	 1.000000 
S122	 0.888889	 0.187601	 0.000000 
Mo123	 0.792664	 0.243156	 0.500000 
Mo124	 0.888889	 0.243156	 0.500000 
S125	 0.840777	 0.270934	 1.000000 
S126	 0.840777	 0.270934	 0.000000 
S127	 0.744552	 0.270934	 1.000000 
S128	 0.744552	 0.270934	 0.000000 
Mo129	 0.648326	 0.326490	 0.500000 
Mo130	 0.744552	 0.326490	 0.500000 
S131	 0.696439	 0.354267	 1.000000 
S132	 0.696439	 0.354267	 0.000000 
S133	 0.600214	 0.354267	 1.000000 
S134	 0.600214	 0.354267	 0.000000 
Mo135	 0.503989	 0.409823	 0.500000 
Mo136	 0.600214	 0.409823	 0.500000 
S137	 0.552101	 0.437601	 1.000000 
S138	 0.552101	 0.437601	 0.000000 
S139	 0.455876	 0.437601	 1.000000 
S140	 0.455876	 0.437601	 0.000000 
Mo141	 0.359651	 0.493156	 0.500000 
Mo142	 0.455876	 0.493156	 0.500000 
S143	 0.407764	 0.520934	 1.000000 
S144	 0.407764	 0.520934	 0.000000 
S145	 0.311539	 0.520934	 1.000000 
S146	 0.311539	 0.520934	 0.000000 
Mo147	 0.215314	 0.576490	 0.500000 
Mo148	 0.311539	 0.576490	 0.500000 
S149	 0.263426	 0.604267	 1.000000 
S150	 0.263426	 0.604267	 0.000000 
S151	 0.167201	 0.604267	 1.000000 
S152	 0.167201	 0.604267	 0.000000 
Mo153	 0.070976	 0.659823	 0.500000 
Mo154	 0.167201	 0.659823	 0.500000 
S155	 0.119089	 0.687601	 1.000000 
S156	 0.119089	 0.687601	 0.000000 
S157	 0.937002	 0.270934	 1.000000 
S158	 0.937002	 0.270934	 0.000000 
Mo159	 0.840777	 0.326490	 0.500000 
Mo160	 0.937002	 0.326490	 0.500000 
S161	 0.888889	 0.354267	 1.000000 
S162	 0.888889	 0.354267	 0.000000 
S163	 0.792664	 0.354267	 1.000000 
S164	 0.792664	 0.354267	 0.000000 
Mo165	 0.696439	 0.409823	 0.500000 
Mo166	 0.792664	 0.409823	 0.500000 
S167	 0.744552	 0.437601	 1.000000 
S168	 0.744552	 0.437601	 0.000000 
S169	 0.648326	 0.437601	 1.000000 
S170	 0.648326	 0.437601	 0.000000 
Mo171	 0.552101	 0.493156	 0.500000 
Mo172	 0.648326	 0.493156	 0.500000 
S173	 0.600214	 0.520934	 1.000000 
S174	 0.600214	 0.520934	 0.000000 
S175	 0.503989	 0.520934	 1.000000 
S176	 0.503989	 0.520934	 0.000000 
Mo177	 0.407764	 0.576490	 0.500000 
Mo178	 0.503989	 0.576490	 0.500000 
S179	 0.455876	 0.604267	 1.000000 
S180	 0.455876	 0.604267	 0.000000 
S181	 0.359651	 0.604267	 1.000000 
S182	 0.359651	 0.604267	 0.000000 
Mo183	 0.263426	 0.659823	 0.500000 
Mo184	 0.359651	 0.659823	 0.500000 
S185	 0.311539	 0.687601	 1.000000 
S186	 0.311539	 0.687601	 0.000000 
S187	 0.215314	 0.687601	 1.000000 
S188	 0.215314	 0.687601	 0.000000 
Mo189	 0.119089	 0.743156	 0.500000 
Mo190	 0.215314	 0.743156	 0.500000 
S191	 0.167201	 0.770934	 1.000000 
S192	 0.167201	 0.770934	 0.000000 
S193	 0.985114	 0.354267	 1.000000 
S194	 0.985114	 0.354267	 0.000000 
Mo195	 0.888889	 0.409823	 0.500000 
Mo196	 0.985114	 0.409823	 0.500000 
S197	 0.937002	 0.437601	 1.000000 
S198	 0.937002	 0.437601	 0.000000 
S199	 0.840777	 0.437601	 1.000000 
S200	 0.840777	 0.437601	 0.000000 
Mo201	 0.744552	 0.493156	 0.500000 
Mo202	 0.840777	 0.493156	 0.500000 
S203	 0.792664	 0.520934	 1.000000 
S204	 0.792664	 0.520934	 0.000000 
S205	 0.696439	 0.520934	 1.000000 
S206	 0.696439	 0.520934	 0.000000 
Mo207	 0.600214	 0.576490	 0.500000 
Mo208	 0.696439	 0.576490	 0.500000 
S209	 0.648326	 0.604267	 1.000000 
S210	 0.648326	 0.604267	 0.000000 
S211	 0.552101	 0.604267	 1.000000 
S212	 0.552101	 0.604267	 0.000000 
Mo213	 0.455876	 0.659823	 0.500000 
Mo214	 0.552101	 0.659823	 0.500000 
S215	 0.503989	 0.687601	 1.000000 
S216	 0.503989	 0.687601	 0.000000 
S217	 0.407764	 0.687601	 1.000000 
S218	 0.407764	 0.687601	 0.000000 
Mo219	 0.311539	 0.743156	 0.500000 
Mo220	 0.407764	 0.743156	 0.500000 
S221	 0.359651	 0.770934	 1.000000 
S222	 0.359651	 0.770934	 0.000000 
S223	 0.263426	 0.770934	 1.000000 
S224	 0.263426	 0.770934	 0.000000 
Mo225	 0.167201	 0.826490	 0.500000 
Mo226	 0.263426	 0.826490	 0.500000 
S227	 0.215314	 0.854267	 1.000000 
S228	 0.215314	 0.854267	 0.000000 
Mo229	 0.937002	 0.493156	 0.500000 
S230	 0.985114	 0.520934	 1.000000 
S231	 0.985114	 0.520934	 0.000000 
S232	 0.888889	 0.520934	 1.000000 
S233	 0.888889	 0.520934	 0.000000 
Mo234	 0.792664	 0.576490	 0.500000 
Mo235	 0.888889	 0.576490	 0.500000 
S236	 0.840777	 0.604267	 1.000000 
S237	 0.840777	 0.604267	 0.000000 
S238	 0.744552	 0.604267	 1.000000 
S239	 0.744552	 0.604267	 0.000000 
Mo240	 0.648326	 0.659823	 0.500000 
Mo241	 0.744552	 0.659823	 0.500000 
S242	 0.696439	 0.687601	 1.000000 
S243	 0.696439	 0.687601	 0.000000 
S244	 0.600214	 0.687601	 1.000000 
S245	 0.600214	 0.687601	 0.000000 
Mo246	 0.503989	 0.743156	 0.500000 
Mo247	 0.600214	 0.743156	 0.500000 
S248	 0.552101	 0.770934	 1.000000 
S249	 0.552101	 0.770934	 0.000000 
S250	 0.455876	 0.770934	 1.000000 
S251	 0.455876	 0.770934	 0.000000 
Mo252	 0.359651	 0.826490	 0.500000 
Mo253	 0.455876	 0.826490	 0.500000 
S254	 0.407764	 0.854267	 1.000000 
S255	 0.407764	 0.854267	 0.000000 
S256	 0.311539	 0.854267	 1.000000 
S257	 0.311539	 0.854267	 0.000000 
Mo258	 0.215314	 0.909823	 0.500000 
Mo259	 0.311539	 0.909823	 0.500000 
S260	 0.263426	 0.937601	 1.000000 
S261	 0.263426	 0.937601	 0.000000 
Mo262	 0.985114	 0.576490	 0.500000 
S263	 0.937002	 0.604267	 1.000000 
S264	 0.937002	 0.604267	 0.000000 
Mo265	 0.840777	 0.659823	 0.500000 
Mo266	 0.937002	 0.659823	 0.500000 
S267	 0.888889	 0.687601	 1.000000 
S268	 0.888889	 0.687601	 0.000000 
S269	 0.792664	 0.687601	 1.000000 
S270	 0.792664	 0.687601	 0.000000 
Mo271	 0.696439	 0.743156	 0.500000 
Mo272	 0.792664	 0.743156	 0.500000 
S273	 0.744552	 0.770934	 1.000000 
S274	 0.744552	 0.770934	 0.000000 
S275	 0.648326	 0.770934	 1.000000 
S276	 0.648326	 0.770934	 0.000000 
Mo277	 0.552101	 0.826490	 0.500000 
Mo278	 0.648326	 0.826490	 0.500000 
S279	 0.600214	 0.854267	 1.000000 
S280	 0.600214	 0.854267	 0.000000 
S281	 0.503989	 0.854267	 1.000000 
S282	 0.503989	 0.854267	 0.000000 
Mo283	 0.407764	 0.909823	 0.500000 
Mo284	 0.503989	 0.909823	 0.500000 
S285	 0.455876	 0.937601	 1.000000 
S286	 0.455876	 0.937601	 0.000000 
S287	 0.359651	 0.937601	 1.000000 
S288	 0.359651	 0.937601	 0.000000 
Mo289	 0.263426	 0.993156	 0.500000 
Mo290	 0.359651	 0.993156	 0.500000 
S291	 0.985114	 0.687601	 1.000000 
S292	 0.985114	 0.687601	 0.000000 
Mo293	 0.888889	 0.743156	 0.500000 
Mo294	 0.985114	 0.743156	 0.500000 
S295	 0.937002	 0.770934	 1.000000 
S296	 0.937002	 0.770934	 0.000000 
S297	 0.840777	 0.770934	 1.000000 
S298	 0.840777	 0.770934	 0.000000 
Mo299	 0.744552	 0.826490	 0.500000 
Mo300	 0.840777	 0.826490	 0.500000 
S301	 0.792664	 0.854267	 1.000000 
S302	 0.792664	 0.854267	 0.000000 
S303	 0.696439	 0.854267	 1.000000 
S304	 0.696439	 0.854267	 0.000000 
Mo305	 0.600214	 0.909823	 0.500000 
Mo306	 0.696439	 0.909823	 0.500000 
S307	 0.648326	 0.937601	 1.000000 
S308	 0.648326	 0.937601	 0.000000 
S309	 0.552101	 0.937601	 1.000000 
S310	 0.552101	 0.937601	 0.000000 
Mo311	 0.455876	 0.993156	 0.500000 
Mo312	 0.552101	 0.993156	 0.500000 
#                 ---end-of-data-block---
