data_Single Layer of MoS2nx 10 ny 6 nz 1
_cell_length_a               32.423991
_cell_length_b               32.423991
_cell_length_c               3.080000
_cell_angle_alpha          90.000000
_cell_angle_beta           90.000000
_cell_angle_gamma          90.000000
_symmetry_cell_setting          Triclinic
_symmetry_space_group_name_H-M 'P 1' 
loop_
_atom_site_label
_atom_site_fract_x
_atom_site_fract_y
_atom_site_fract_z
Mo1	 0.606835	 0.015973	 0.500000 
Mo2	 0.699781	 0.040878	 0.500000 
S3	 0.646118	 0.055257	 1.000000 
S4	 0.646118	 0.055257	 0.000000 
S5	 0.553172	 0.030352	 1.000000 
S6	 0.553172	 0.030352	 0.000000 
Mo7	 0.445847	 0.059109	 0.500000 
Mo8	 0.538793	 0.084014	 0.500000 
S9	 0.485131	 0.098393	 1.000000 
S10	 0.485131	 0.098393	 0.000000 
S11	 0.392184	 0.073488	 1.000000 
S12	 0.392184	 0.073488	 0.000000 
Mo13	 0.284859	 0.102246	 0.500000 
Mo14	 0.377806	 0.127151	 0.500000 
S15	 0.324143	 0.141530	 1.000000 
S16	 0.324143	 0.141530	 0.000000 
S17	 0.231197	 0.116625	 1.000000 
S18	 0.231197	 0.116625	 0.000000 
Mo19	 0.123872	 0.145382	 0.500000 
Mo20	 0.216818	 0.170287	 0.500000 
S21	 0.163155	 0.184666	 1.000000 
S22	 0.163155	 0.184666	 0.000000 
S23	 0.070209	 0.159761	 1.000000 
S24	 0.070209	 0.159761	 0.000000 
Mo25	 0.055830	 0.213424	 0.500000 
S26	 0.002168	 0.227803	 1.000000 
S27	 0.002168	 0.227803	 0.000000 
S28	 0.807106	 0.012120	 1.000000 
S29	 0.807106	 0.012120	 0.000000 
S30	 0.739065	 0.080161	 1.000000 
S31	 0.739065	 0.080161	 0.000000 
Mo32	 0.631739	 0.108919	 0.500000 
Mo33	 0.724686	 0.133824	 0.500000 
S34	 0.671023	 0.148203	 1.000000 
S35	 0.671023	 0.148203	 0.000000 
S36	 0.578077	 0.123298	 1.000000 
S37	 0.578077	 0.123298	 0.000000 
Mo38	 0.470752	 0.152056	 0.500000 
Mo39	 0.563698	 0.176960	 0.500000 
S40	 0.510035	 0.191339	 1.000000 
S41	 0.510035	 0.191339	 0.000000 
S42	 0.417089	 0.166434	 1.000000 
S43	 0.417089	 0.166434	 0.000000 
Mo44	 0.309764	 0.195192	 0.500000 
Mo45	 0.402710	 0.220097	 0.500000 
S46	 0.349048	 0.234476	 1.000000 
S47	 0.349048	 0.234476	 0.000000 
S48	 0.256102	 0.209571	 1.000000 
S49	 0.256102	 0.209571	 0.000000 
Mo50	 0.148777	 0.238329	 0.500000 
Mo51	 0.241723	 0.263233	 0.500000 
S52	 0.188060	 0.277612	 1.000000 
S53	 0.188060	 0.277612	 0.000000 
S54	 0.095114	 0.252707	 1.000000 
S55	 0.095114	 0.252707	 0.000000 
Mo56	 0.080735	 0.306370	 0.500000 
S57	 0.027073	 0.320749	 1.000000 
S58	 0.027073	 0.320749	 0.000000 
Mo59	 0.792727	 0.065783	 0.500000 
Mo60	 0.885673	 0.090687	 0.500000 
S61	 0.832011	 0.105066	 1.000000 
S62	 0.832011	 0.105066	 0.000000 
S63	 0.763969	 0.173108	 1.000000 
S64	 0.763969	 0.173108	 0.000000 
Mo65	 0.656644	 0.201865	 0.500000 
Mo66	 0.749591	 0.226770	 0.500000 
S67	 0.695928	 0.241149	 1.000000 
S68	 0.695928	 0.241149	 0.000000 
S69	 0.602982	 0.216244	 1.000000 
S70	 0.602982	 0.216244	 0.000000 
Mo71	 0.495657	 0.245002	 0.500000 
Mo72	 0.588603	 0.269907	 0.500000 
S73	 0.534940	 0.284286	 1.000000 
S74	 0.534940	 0.284286	 0.000000 
S75	 0.441994	 0.259381	 1.000000 
S76	 0.441994	 0.259381	 0.000000 
Mo77	 0.334669	 0.288138	 0.500000 
Mo78	 0.427615	 0.313043	 0.500000 
S79	 0.373953	 0.327422	 1.000000 
S80	 0.373953	 0.327422	 0.000000 
S81	 0.281006	 0.302517	 1.000000 
S82	 0.281006	 0.302517	 0.000000 
Mo83	 0.173681	 0.331275	 0.500000 
Mo84	 0.266628	 0.356180	 0.500000 
S85	 0.212965	 0.370559	 1.000000 
S86	 0.212965	 0.370559	 0.000000 
S87	 0.120019	 0.345654	 1.000000 
S88	 0.120019	 0.345654	 0.000000 
Mo89	 0.012694	 0.374411	 0.500000 
Mo90	 0.105640	 0.399316	 0.500000 
S91	 0.051977	 0.413695	 1.000000 
S92	 0.051977	 0.413695	 0.000000 
Mo93	 0.817632	 0.158729	 0.500000 
Mo94	 0.910578	 0.183634	 0.500000 
S95	 0.856916	 0.198013	 1.000000 
S96	 0.856916	 0.198013	 0.000000 
S97	 0.788874	 0.266054	 1.000000 
S98	 0.788874	 0.266054	 0.000000 
Mo99	 0.681549	 0.294812	 0.500000 
Mo100	 0.774495	 0.319716	 0.500000 
S101	 0.720833	 0.334095	 1.000000 
S102	 0.720833	 0.334095	 0.000000 
S103	 0.627887	 0.309190	 1.000000 
S104	 0.627887	 0.309190	 0.000000 
Mo105	 0.520562	 0.337948	 0.500000 
Mo106	 0.613508	 0.362853	 0.500000 
S107	 0.559845	 0.377232	 1.000000 
S108	 0.559845	 0.377232	 0.000000 
S109	 0.466899	 0.352327	 1.000000 
S110	 0.466899	 0.352327	 0.000000 
Mo111	 0.359574	 0.381085	 0.500000 
Mo112	 0.452520	 0.405989	 0.500000 
S113	 0.398858	 0.420368	 1.000000 
S114	 0.398858	 0.420368	 0.000000 
S115	 0.305911	 0.395463	 1.000000 
S116	 0.305911	 0.395463	 0.000000 
Mo117	 0.198586	 0.424221	 0.500000 
Mo118	 0.291533	 0.449126	 0.500000 
S119	 0.237870	 0.463505	 1.000000 
S120	 0.237870	 0.463505	 0.000000 
S121	 0.144924	 0.438600	 1.000000 
S122	 0.144924	 0.438600	 0.000000 
Mo123	 0.037599	 0.467358	 0.500000 
Mo124	 0.130545	 0.492263	 0.500000 
S125	 0.076882	 0.506641	 1.000000 
S126	 0.076882	 0.506641	 0.000000 
Mo127	 0.842537	 0.251675	 0.500000 
Mo128	 0.935483	 0.276580	 0.500000 
S129	 0.881821	 0.290959	 1.000000 
S130	 0.881821	 0.290959	 0.000000 
S131	 0.813779	 0.359000	 1.000000 
S132	 0.813779	 0.359000	 0.000000 
Mo133	 0.706454	 0.387758	 0.500000 
Mo134	 0.799400	 0.412663	 0.500000 
S135	 0.745738	 0.427042	 1.000000 
S136	 0.745738	 0.427042	 0.000000 
S137	 0.652792	 0.402137	 1.000000 
S138	 0.652792	 0.402137	 0.000000 
Mo139	 0.545466	 0.430894	 0.500000 
Mo140	 0.638413	 0.455799	 0.500000 
S141	 0.584750	 0.470178	 1.000000 
S142	 0.584750	 0.470178	 0.000000 
S143	 0.491804	 0.445273	 1.000000 
S144	 0.491804	 0.445273	 0.000000 
Mo145	 0.384479	 0.474031	 0.500000 
Mo146	 0.477425	 0.498936	 0.500000 
S147	 0.423762	 0.513315	 1.000000 
S148	 0.423762	 0.513315	 0.000000 
S149	 0.330816	 0.488410	 1.000000 
S150	 0.330816	 0.488410	 0.000000 
Mo151	 0.223491	 0.517167	 0.500000 
Mo152	 0.316437	 0.542072	 0.500000 
S153	 0.262775	 0.556451	 1.000000 
S154	 0.262775	 0.556451	 0.000000 
S155	 0.169829	 0.531546	 1.000000 
S156	 0.169829	 0.531546	 0.000000 
Mo157	 0.062503	 0.560304	 0.500000 
Mo158	 0.155450	 0.585209	 0.500000 
S159	 0.101787	 0.599588	 1.000000 
S160	 0.101787	 0.599588	 0.000000 
S161	 0.008841	 0.574683	 1.000000 
S162	 0.008841	 0.574683	 0.000000 
Mo163	 0.867442	 0.344621	 0.500000 
Mo164	 0.960388	 0.369526	 0.500000 
S165	 0.906725	 0.383905	 1.000000 
S166	 0.906725	 0.383905	 0.000000 
S167	 0.838684	 0.451946	 1.000000 
S168	 0.838684	 0.451946	 0.000000 
Mo169	 0.731359	 0.480704	 0.500000 
Mo170	 0.824305	 0.505609	 0.500000 
S171	 0.770643	 0.519988	 1.000000 
S172	 0.770643	 0.519988	 0.000000 
S173	 0.677696	 0.495083	 1.000000 
S174	 0.677696	 0.495083	 0.000000 
Mo175	 0.570371	 0.523841	 0.500000 
Mo176	 0.663318	 0.548746	 0.500000 
S177	 0.609655	 0.563124	 1.000000 
S178	 0.609655	 0.563124	 0.000000 
S179	 0.516709	 0.538219	 1.000000 
S180	 0.516709	 0.538219	 0.000000 
Mo181	 0.409384	 0.566977	 0.500000 
Mo182	 0.502330	 0.591882	 0.500000 
S183	 0.448667	 0.606261	 1.000000 
S184	 0.448667	 0.606261	 0.000000 
S185	 0.355721	 0.581356	 1.000000 
S186	 0.355721	 0.581356	 0.000000 
Mo187	 0.248396	 0.610114	 0.500000 
Mo188	 0.341342	 0.635019	 0.500000 
S189	 0.287680	 0.649397	 1.000000 
S190	 0.287680	 0.649397	 0.000000 
S191	 0.194733	 0.624492	 1.000000 
S192	 0.194733	 0.624492	 0.000000 
Mo193	 0.087408	 0.653250	 0.500000 
Mo194	 0.180355	 0.678155	 0.500000 
S195	 0.126692	 0.692534	 1.000000 
S196	 0.126692	 0.692534	 0.000000 
S197	 0.033746	 0.667629	 1.000000 
S198	 0.033746	 0.667629	 0.000000 
Mo199	 0.892347	 0.437568	 0.500000 
Mo200	 0.985293	 0.462472	 0.500000 
S201	 0.931630	 0.476851	 1.000000 
S202	 0.931630	 0.476851	 0.000000 
S203	 0.863589	 0.544893	 1.000000 
S204	 0.863589	 0.544893	 0.000000 
Mo205	 0.756264	 0.573650	 0.500000 
Mo206	 0.849210	 0.598555	 0.500000 
S207	 0.795548	 0.612934	 1.000000 
S208	 0.795548	 0.612934	 0.000000 
S209	 0.702601	 0.588029	 1.000000 
S210	 0.702601	 0.588029	 0.000000 
Mo211	 0.595276	 0.616787	 0.500000 
Mo212	 0.688222	 0.641692	 0.500000 
S213	 0.634560	 0.656071	 1.000000 
S214	 0.634560	 0.656071	 0.000000 
S215	 0.541614	 0.631166	 1.000000 
S216	 0.541614	 0.631166	 0.000000 
Mo217	 0.434289	 0.659923	 0.500000 
Mo218	 0.527235	 0.684828	 0.500000 
S219	 0.473572	 0.699207	 1.000000 
S220	 0.473572	 0.699207	 0.000000 
S221	 0.380626	 0.674302	 1.000000 
S222	 0.380626	 0.674302	 0.000000 
Mo223	 0.273301	 0.703060	 0.500000 
Mo224	 0.366247	 0.727965	 0.500000 
S225	 0.312585	 0.742344	 1.000000 
S226	 0.312585	 0.742344	 0.000000 
S227	 0.219638	 0.717439	 1.000000 
S228	 0.219638	 0.717439	 0.000000 
Mo229	 0.112313	 0.746196	 0.500000 
Mo230	 0.205260	 0.771101	 0.500000 
S231	 0.151597	 0.785480	 1.000000 
S232	 0.151597	 0.785480	 0.000000 
S233	 0.058651	 0.760575	 1.000000 
S234	 0.058651	 0.760575	 0.000000 
Mo235	 0.917251	 0.530514	 0.500000 
S236	 0.956535	 0.569798	 1.000000 
S237	 0.956535	 0.569798	 0.000000 
S238	 0.888494	 0.637839	 1.000000 
S239	 0.888494	 0.637839	 0.000000 
Mo240	 0.781169	 0.666597	 0.500000 
Mo241	 0.874115	 0.691502	 0.500000 
S242	 0.820452	 0.705880	 1.000000 
S243	 0.820452	 0.705880	 0.000000 
S244	 0.727506	 0.680975	 1.000000 
S245	 0.727506	 0.680975	 0.000000 
Mo246	 0.620181	 0.709733	 0.500000 
Mo247	 0.713127	 0.734638	 0.500000 
S248	 0.659465	 0.749017	 1.000000 
S249	 0.659465	 0.749017	 0.000000 
S250	 0.566518	 0.724112	 1.000000 
S251	 0.566518	 0.724112	 0.000000 
Mo252	 0.459193	 0.752870	 0.500000 
Mo253	 0.552140	 0.777775	 0.500000 
S254	 0.498477	 0.792153	 1.000000 
S255	 0.498477	 0.792153	 0.000000 
S256	 0.405531	 0.767248	 1.000000 
S257	 0.405531	 0.767248	 0.000000 
Mo258	 0.298206	 0.796006	 0.500000 
Mo259	 0.391152	 0.820911	 0.500000 
S260	 0.337489	 0.835290	 1.000000 
S261	 0.337489	 0.835290	 0.000000 
S262	 0.244543	 0.810385	 1.000000 
S263	 0.244543	 0.810385	 0.000000 
Mo264	 0.137218	 0.839143	 0.500000 
Mo265	 0.230164	 0.864048	 0.500000 
S266	 0.176502	 0.878426	 1.000000 
S267	 0.176502	 0.878426	 0.000000 
S268	 0.083556	 0.853521	 1.000000 
S269	 0.083556	 0.853521	 0.000000 
Mo270	 0.942156	 0.623460	 0.500000 
S271	 0.981440	 0.662744	 1.000000 
S272	 0.981440	 0.662744	 0.000000 
S273	 0.913399	 0.730785	 1.000000 
S274	 0.913399	 0.730785	 0.000000 
Mo275	 0.806074	 0.759543	 0.500000 
Mo276	 0.899020	 0.784448	 0.500000 
S277	 0.845357	 0.798827	 1.000000 
S278	 0.845357	 0.798827	 0.000000 
S279	 0.752411	 0.773922	 1.000000 
S280	 0.752411	 0.773922	 0.000000 
Mo281	 0.645086	 0.802679	 0.500000 
Mo282	 0.738032	 0.827584	 0.500000 
S283	 0.684370	 0.841963	 1.000000 
S284	 0.684370	 0.841963	 0.000000 
S285	 0.591423	 0.817058	 1.000000 
S286	 0.591423	 0.817058	 0.000000 
Mo287	 0.484098	 0.845816	 0.500000 
Mo288	 0.577045	 0.870721	 0.500000 
S289	 0.523382	 0.885100	 1.000000 
S290	 0.523382	 0.885100	 0.000000 
S291	 0.430436	 0.860195	 1.000000 
S292	 0.430436	 0.860195	 0.000000 
Mo293	 0.323111	 0.888952	 0.500000 
Mo294	 0.416057	 0.913857	 0.500000 
S295	 0.362394	 0.928236	 1.000000 
S296	 0.362394	 0.928236	 0.000000 
S297	 0.269448	 0.903331	 1.000000 
S298	 0.269448	 0.903331	 0.000000 
Mo299	 0.162123	 0.932089	 0.500000 
Mo300	 0.255069	 0.956994	 0.500000 
S301	 0.201407	 0.971373	 1.000000 
S302	 0.201407	 0.971373	 0.000000 
S303	 0.108460	 0.946468	 1.000000 
S304	 0.108460	 0.946468	 0.000000 
Mo305	 0.967061	 0.716406	 0.500000 
S306	 0.938304	 0.823731	 1.000000 
S307	 0.938304	 0.823731	 0.000000 
Mo308	 0.830978	 0.852489	 0.500000 
Mo309	 0.923925	 0.877394	 0.500000 
S310	 0.870262	 0.891773	 1.000000 
S311	 0.870262	 0.891773	 0.000000 
S312	 0.777316	 0.866868	 1.000000 
S313	 0.777316	 0.866868	 0.000000 
Mo314	 0.669991	 0.895626	 0.500000 
Mo315	 0.762937	 0.920531	 0.500000 
S316	 0.709274	 0.934909	 1.000000 
S317	 0.709274	 0.934909	 0.000000 
S318	 0.616328	 0.910004	 1.000000 
S319	 0.616328	 0.910004	 0.000000 
Mo320	 0.509003	 0.938762	 0.500000 
Mo321	 0.601949	 0.963667	 0.500000 
S322	 0.548287	 0.978046	 1.000000 
S323	 0.548287	 0.978046	 0.000000 
S324	 0.455341	 0.953141	 1.000000 
S325	 0.455341	 0.953141	 0.000000 
Mo326	 0.348016	 0.981899	 0.500000 
S327	 0.294353	 0.996278	 1.000000 
S328	 0.294353	 0.996278	 0.000000 
Mo329	 0.991966	 0.809353	 0.500000 
#                 ---end-of-data-block---
