data_Single Layer of MoS2nx 10 ny 6 nz 1
_cell_length_a               32.423991
_cell_length_b               32.423991
_cell_length_c               3.080000
_cell_angle_alpha          90.000000
_cell_angle_beta           90.000000
_cell_angle_gamma          90.000000
_symmetry_cell_setting          Triclinic
_symmetry_space_group_name_H-M 'P 1' 
loop_
_atom_site_label
_atom_site_fract_x
_atom_site_fract_y
_atom_site_fract_z
Mo1	 0.700883	 0.017467	 0.500000 
Mo2	 0.793830	 0.042372	 0.500000 
S3	 0.740167	 0.056751	 1.000000 
S4	 0.740167	 0.056751	 0.000000 
S5	 0.647221	 0.031846	 1.000000 
S6	 0.647221	 0.031846	 0.000000 
Mo7	 0.539896	 0.060603	 0.500000 
Mo8	 0.632842	 0.085508	 0.500000 
S9	 0.579179	 0.099887	 1.000000 
S10	 0.579179	 0.099887	 0.000000 
S11	 0.486233	 0.074982	 1.000000 
S12	 0.486233	 0.074982	 0.000000 
Mo13	 0.378908	 0.103740	 0.500000 
Mo14	 0.471854	 0.128645	 0.500000 
S15	 0.418192	 0.143024	 1.000000 
S16	 0.418192	 0.143024	 0.000000 
S17	 0.325246	 0.118119	 1.000000 
S18	 0.325246	 0.118119	 0.000000 
Mo19	 0.217920	 0.146876	 0.500000 
Mo20	 0.310867	 0.171781	 0.500000 
S21	 0.257204	 0.186160	 1.000000 
S22	 0.257204	 0.186160	 0.000000 
S23	 0.164258	 0.161255	 1.000000 
S24	 0.164258	 0.161255	 0.000000 
Mo25	 0.056933	 0.190013	 0.500000 
Mo26	 0.149879	 0.214918	 0.500000 
S27	 0.096217	 0.229297	 1.000000 
S28	 0.096217	 0.229297	 0.000000 
S29	 0.003270	 0.204392	 1.000000 
S30	 0.003270	 0.204392	 0.000000 
S31	 0.833113	 0.081656	 1.000000 
S32	 0.833113	 0.081656	 0.000000 
Mo33	 0.725788	 0.110413	 0.500000 
Mo34	 0.818735	 0.135318	 0.500000 
S35	 0.765072	 0.149697	 1.000000 
S36	 0.765072	 0.149697	 0.000000 
S37	 0.672126	 0.124792	 1.000000 
S38	 0.672126	 0.124792	 0.000000 
Mo39	 0.564801	 0.153550	 0.500000 
Mo40	 0.657747	 0.178455	 0.500000 
S41	 0.604084	 0.192833	 1.000000 
S42	 0.604084	 0.192833	 0.000000 
S43	 0.511138	 0.167929	 1.000000 
S44	 0.511138	 0.167929	 0.000000 
Mo45	 0.403813	 0.196686	 0.500000 
Mo46	 0.496759	 0.221591	 0.500000 
S47	 0.443097	 0.235970	 1.000000 
S48	 0.443097	 0.235970	 0.000000 
S49	 0.350150	 0.211065	 1.000000 
S50	 0.350150	 0.211065	 0.000000 
Mo51	 0.242825	 0.239823	 0.500000 
Mo52	 0.335772	 0.264728	 0.500000 
S53	 0.282109	 0.279106	 1.000000 
S54	 0.282109	 0.279106	 0.000000 
S55	 0.189163	 0.254202	 1.000000 
S56	 0.189163	 0.254202	 0.000000 
Mo57	 0.081838	 0.282959	 0.500000 
Mo58	 0.174784	 0.307864	 0.500000 
S59	 0.121121	 0.322243	 1.000000 
S60	 0.121121	 0.322243	 0.000000 
S61	 0.028175	 0.297338	 1.000000 
S62	 0.028175	 0.297338	 0.000000 
Mo63	 0.886776	 0.067277	 0.500000 
Mo64	 0.013796	 0.351001	 0.500000 
S65	 0.858018	 0.174602	 1.000000 
S66	 0.858018	 0.174602	 0.000000 
Mo67	 0.750693	 0.203359	 0.500000 
Mo68	 0.843639	 0.228264	 0.500000 
S69	 0.789977	 0.242643	 1.000000 
S70	 0.789977	 0.242643	 0.000000 
S71	 0.697031	 0.217738	 1.000000 
S72	 0.697031	 0.217738	 0.000000 
Mo73	 0.589706	 0.246496	 0.500000 
Mo74	 0.682652	 0.271401	 0.500000 
S75	 0.628989	 0.285780	 1.000000 
S76	 0.628989	 0.285780	 0.000000 
S77	 0.536043	 0.260875	 1.000000 
S78	 0.536043	 0.260875	 0.000000 
Mo79	 0.428718	 0.289632	 0.500000 
Mo80	 0.521664	 0.314537	 0.500000 
S81	 0.468002	 0.328916	 1.000000 
S82	 0.468002	 0.328916	 0.000000 
S83	 0.375055	 0.304011	 1.000000 
S84	 0.375055	 0.304011	 0.000000 
Mo85	 0.267730	 0.332769	 0.500000 
Mo86	 0.360677	 0.357674	 0.500000 
S87	 0.307014	 0.372053	 1.000000 
S88	 0.307014	 0.372053	 0.000000 
S89	 0.214068	 0.347148	 1.000000 
S90	 0.214068	 0.347148	 0.000000 
Mo91	 0.106743	 0.375905	 0.500000 
Mo92	 0.199689	 0.400810	 0.500000 
S93	 0.146026	 0.415189	 1.000000 
S94	 0.146026	 0.415189	 0.000000 
S95	 0.053080	 0.390284	 1.000000 
S96	 0.053080	 0.390284	 0.000000 
Mo97	 0.911681	 0.160223	 0.500000 
Mo98	 0.038701	 0.443947	 0.500000 
S99	 0.882923	 0.267548	 1.000000 
S100	 0.882923	 0.267548	 0.000000 
Mo101	 0.775598	 0.296306	 0.500000 
Mo102	 0.868544	 0.321211	 0.500000 
S103	 0.814882	 0.335589	 1.000000 
S104	 0.814882	 0.335589	 0.000000 
S105	 0.721935	 0.310685	 1.000000 
S106	 0.721935	 0.310685	 0.000000 
Mo107	 0.614610	 0.339442	 0.500000 
Mo108	 0.707557	 0.364347	 0.500000 
S109	 0.653894	 0.378726	 1.000000 
S110	 0.653894	 0.378726	 0.000000 
S111	 0.560948	 0.353821	 1.000000 
S112	 0.560948	 0.353821	 0.000000 
Mo113	 0.453623	 0.382579	 0.500000 
Mo114	 0.546569	 0.407484	 0.500000 
S115	 0.492906	 0.421862	 1.000000 
S116	 0.492906	 0.421862	 0.000000 
S117	 0.399960	 0.396958	 1.000000 
S118	 0.399960	 0.396958	 0.000000 
Mo119	 0.292635	 0.425715	 0.500000 
Mo120	 0.385581	 0.450620	 0.500000 
S121	 0.331919	 0.464999	 1.000000 
S122	 0.331919	 0.464999	 0.000000 
S123	 0.238973	 0.440094	 1.000000 
S124	 0.238973	 0.440094	 0.000000 
Mo125	 0.131647	 0.468852	 0.500000 
Mo126	 0.224594	 0.493757	 0.500000 
S127	 0.170931	 0.508135	 1.000000 
S128	 0.170931	 0.508135	 0.000000 
S129	 0.077985	 0.483231	 1.000000 
S130	 0.077985	 0.483231	 0.000000 
Mo131	 0.936586	 0.253169	 0.500000 
Mo132	 0.063606	 0.536893	 0.500000 
S133	 0.009944	 0.551272	 1.000000 
S134	 0.009944	 0.551272	 0.000000 
S135	 0.907828	 0.360494	 1.000000 
S136	 0.907828	 0.360494	 0.000000 
Mo137	 0.800503	 0.389252	 0.500000 
Mo138	 0.893449	 0.414157	 0.500000 
S139	 0.839787	 0.428536	 1.000000 
S140	 0.839787	 0.428536	 0.000000 
S141	 0.746840	 0.403631	 1.000000 
S142	 0.746840	 0.403631	 0.000000 
Mo143	 0.639515	 0.432388	 0.500000 
Mo144	 0.732462	 0.457293	 0.500000 
S145	 0.678799	 0.471672	 1.000000 
S146	 0.678799	 0.471672	 0.000000 
S147	 0.585853	 0.446767	 1.000000 
S148	 0.585853	 0.446767	 0.000000 
Mo149	 0.478528	 0.475525	 0.500000 
Mo150	 0.571474	 0.500430	 0.500000 
S151	 0.517811	 0.514809	 1.000000 
S152	 0.517811	 0.514809	 0.000000 
S153	 0.424865	 0.489904	 1.000000 
S154	 0.424865	 0.489904	 0.000000 
Mo155	 0.317540	 0.518661	 0.500000 
Mo156	 0.410486	 0.543566	 0.500000 
S157	 0.356824	 0.557945	 1.000000 
S158	 0.356824	 0.557945	 0.000000 
S159	 0.263877	 0.533040	 1.000000 
S160	 0.263877	 0.533040	 0.000000 
Mo161	 0.156552	 0.561798	 0.500000 
Mo162	 0.249499	 0.586703	 0.500000 
S163	 0.195836	 0.601082	 1.000000 
S164	 0.195836	 0.601082	 0.000000 
S165	 0.102890	 0.576177	 1.000000 
S166	 0.102890	 0.576177	 0.000000 
Mo167	 0.961491	 0.346115	 0.500000 
Mo168	 0.088511	 0.629839	 0.500000 
S169	 0.034848	 0.644218	 1.000000 
S170	 0.034848	 0.644218	 0.000000 
S171	 0.932733	 0.453441	 1.000000 
S172	 0.932733	 0.453441	 0.000000 
Mo173	 0.825408	 0.482198	 0.500000 
Mo174	 0.918354	 0.507103	 0.500000 
S175	 0.864691	 0.521482	 1.000000 
S176	 0.864691	 0.521482	 0.000000 
S177	 0.771745	 0.496577	 1.000000 
S178	 0.771745	 0.496577	 0.000000 
Mo179	 0.664420	 0.525335	 0.500000 
Mo180	 0.757366	 0.550240	 0.500000 
S181	 0.703704	 0.564618	 1.000000 
S182	 0.703704	 0.564618	 0.000000 
S183	 0.610758	 0.539714	 1.000000 
S184	 0.610758	 0.539714	 0.000000 
Mo185	 0.503433	 0.568471	 0.500000 
Mo186	 0.596379	 0.593376	 0.500000 
S187	 0.542716	 0.607755	 1.000000 
S188	 0.542716	 0.607755	 0.000000 
S189	 0.449770	 0.582850	 1.000000 
S190	 0.449770	 0.582850	 0.000000 
Mo191	 0.342445	 0.611608	 0.500000 
Mo192	 0.435391	 0.636513	 0.500000 
S193	 0.381729	 0.650891	 1.000000 
S194	 0.381729	 0.650891	 0.000000 
S195	 0.288782	 0.625987	 1.000000 
S196	 0.288782	 0.625987	 0.000000 
Mo197	 0.181457	 0.654744	 0.500000 
Mo198	 0.274403	 0.679649	 0.500000 
S199	 0.220741	 0.694028	 1.000000 
S200	 0.220741	 0.694028	 0.000000 
S201	 0.127795	 0.669123	 1.000000 
S202	 0.127795	 0.669123	 0.000000 
Mo203	 0.986395	 0.439062	 0.500000 
Mo204	 0.113416	 0.722786	 0.500000 
S205	 0.059753	 0.737164	 1.000000 
S206	 0.059753	 0.737164	 0.000000 
S207	 0.957638	 0.546387	 1.000000 
S208	 0.957638	 0.546387	 0.000000 
Mo209	 0.850313	 0.575144	 0.500000 
Mo210	 0.943259	 0.600049	 0.500000 
S211	 0.889596	 0.614428	 1.000000 
S212	 0.889596	 0.614428	 0.000000 
S213	 0.796650	 0.589523	 1.000000 
S214	 0.796650	 0.589523	 0.000000 
Mo215	 0.689325	 0.618281	 0.500000 
Mo216	 0.782271	 0.643186	 0.500000 
S217	 0.728609	 0.657565	 1.000000 
S218	 0.728609	 0.657565	 0.000000 
S219	 0.635662	 0.632660	 1.000000 
S220	 0.635662	 0.632660	 0.000000 
Mo221	 0.528337	 0.661417	 0.500000 
Mo222	 0.621284	 0.686322	 0.500000 
S223	 0.567621	 0.700701	 1.000000 
S224	 0.567621	 0.700701	 0.000000 
S225	 0.474675	 0.675796	 1.000000 
S226	 0.474675	 0.675796	 0.000000 
Mo227	 0.367350	 0.704554	 0.500000 
Mo228	 0.460296	 0.729459	 0.500000 
S229	 0.406633	 0.743838	 1.000000 
S230	 0.406633	 0.743838	 0.000000 
S231	 0.313687	 0.718933	 1.000000 
S232	 0.313687	 0.718933	 0.000000 
Mo233	 0.206362	 0.747690	 0.500000 
Mo234	 0.299308	 0.772595	 0.500000 
S235	 0.245646	 0.786974	 1.000000 
S236	 0.245646	 0.786974	 0.000000 
S237	 0.152700	 0.762069	 1.000000 
S238	 0.152700	 0.762069	 0.000000 
Mo239	 0.138321	 0.815732	 0.500000 
S240	 0.084658	 0.830111	 1.000000 
S241	 0.084658	 0.830111	 0.000000 
S242	 0.982543	 0.639333	 1.000000 
S243	 0.982543	 0.639333	 0.000000 
Mo244	 0.875218	 0.668091	 0.500000 
Mo245	 0.968164	 0.692996	 0.500000 
S246	 0.914501	 0.707374	 1.000000 
S247	 0.914501	 0.707374	 0.000000 
S248	 0.821555	 0.682470	 1.000000 
S249	 0.821555	 0.682470	 0.000000 
Mo250	 0.714230	 0.711227	 0.500000 
Mo251	 0.807176	 0.736132	 0.500000 
S252	 0.753514	 0.750511	 1.000000 
S253	 0.753514	 0.750511	 0.000000 
S254	 0.660567	 0.725606	 1.000000 
S255	 0.660567	 0.725606	 0.000000 
Mo256	 0.553242	 0.754364	 0.500000 
Mo257	 0.646189	 0.779269	 0.500000 
S258	 0.592526	 0.793647	 1.000000 
S259	 0.592526	 0.793647	 0.000000 
S260	 0.499580	 0.768743	 1.000000 
S261	 0.499580	 0.768743	 0.000000 
Mo262	 0.392255	 0.797500	 0.500000 
Mo263	 0.485201	 0.822405	 0.500000 
S264	 0.431538	 0.836784	 1.000000 
S265	 0.431538	 0.836784	 0.000000 
S266	 0.338592	 0.811879	 1.000000 
S267	 0.338592	 0.811879	 0.000000 
Mo268	 0.231267	 0.840637	 0.500000 
Mo269	 0.324213	 0.865542	 0.500000 
S270	 0.270551	 0.879920	 1.000000 
S271	 0.270551	 0.879920	 0.000000 
S272	 0.177604	 0.855016	 1.000000 
S273	 0.177604	 0.855016	 0.000000 
Mo274	 0.163226	 0.908678	 0.500000 
S275	 0.109563	 0.923057	 1.000000 
S276	 0.109563	 0.923057	 0.000000 
Mo277	 0.900122	 0.761037	 0.500000 
Mo278	 0.993069	 0.785942	 0.500000 
S279	 0.939406	 0.800321	 1.000000 
S280	 0.939406	 0.800321	 0.000000 
S281	 0.846460	 0.775416	 1.000000 
S282	 0.846460	 0.775416	 0.000000 
Mo283	 0.739135	 0.804173	 0.500000 
Mo284	 0.832081	 0.829078	 0.500000 
S285	 0.778418	 0.843457	 1.000000 
S286	 0.778418	 0.843457	 0.000000 
S287	 0.685472	 0.818552	 1.000000 
S288	 0.685472	 0.818552	 0.000000 
Mo289	 0.578147	 0.847310	 0.500000 
Mo290	 0.671093	 0.872215	 0.500000 
S291	 0.617431	 0.886594	 1.000000 
S292	 0.617431	 0.886594	 0.000000 
S293	 0.524485	 0.861689	 1.000000 
S294	 0.524485	 0.861689	 0.000000 
Mo295	 0.417159	 0.890446	 0.500000 
Mo296	 0.510106	 0.915351	 0.500000 
S297	 0.456443	 0.929730	 1.000000 
S298	 0.456443	 0.929730	 0.000000 
S299	 0.363497	 0.904825	 1.000000 
S300	 0.363497	 0.904825	 0.000000 
Mo301	 0.256172	 0.933583	 0.500000 
Mo302	 0.349118	 0.958488	 0.500000 
S303	 0.295456	 0.972867	 1.000000 
S304	 0.295456	 0.972867	 0.000000 
S305	 0.202509	 0.947962	 1.000000 
S306	 0.202509	 0.947962	 0.000000 
Mo307	 0.925027	 0.853983	 0.500000 
S308	 0.871365	 0.868362	 1.000000 
S309	 0.871365	 0.868362	 0.000000 
Mo310	 0.764040	 0.897120	 0.500000 
S311	 0.554275	 0.006941	 1.000000 
S312	 0.554275	 0.006941	 0.000000 
S313	 0.710377	 0.911499	 1.000000 
S314	 0.710377	 0.911499	 0.000000 
Mo315	 0.603052	 0.940256	 0.500000 
Mo316	 0.446950	 0.035699	 0.500000 
S317	 0.393287	 0.050077	 1.000000 
S318	 0.393287	 0.050077	 0.000000 
S319	 0.549389	 0.954635	 1.000000 
S320	 0.549389	 0.954635	 0.000000 
Mo321	 0.442064	 0.983393	 0.500000 
Mo322	 0.285962	 0.078835	 0.500000 
S323	 0.232299	 0.093214	 1.000000 
S324	 0.232299	 0.093214	 0.000000 
S325	 0.388402	 0.997772	 1.000000 
S326	 0.388402	 0.997772	 0.000000 
Mo327	 0.124974	 0.121972	 0.500000 
S328	 0.071312	 0.136350	 1.000000 
S329	 0.071312	 0.136350	 0.000000 
#                 ---end-of-data-block---
