data_Single Layer of MoS2nx 10 ny 6 nz 1
_cell_length_a               32.423991
_cell_length_b               32.423991
_cell_length_c               3.080000
_cell_angle_alpha          90.000000
_cell_angle_beta           90.000000
_cell_angle_gamma          90.000000
_symmetry_cell_setting          Triclinic
_symmetry_space_group_name_H-M 'P 1' 
loop_
_atom_site_label
_atom_site_fract_x
_atom_site_fract_y
_atom_site_fract_z
Mo1	 0.688548	 0.018223	 0.500000 
S2	 0.634886	 0.032602	 1.000000 
S3	 0.634886	 0.032602	 0.000000 
S4	 0.541940	 0.007697	 1.000000 
S5	 0.541940	 0.007697	 0.000000 
Mo6	 0.434614	 0.036455	 0.500000 
Mo7	 0.527561	 0.061360	 0.500000 
S8	 0.473898	 0.075739	 1.000000 
S9	 0.473898	 0.075739	 0.000000 
S10	 0.380952	 0.050834	 1.000000 
S11	 0.380952	 0.050834	 0.000000 
Mo12	 0.273627	 0.079592	 0.500000 
Mo13	 0.366573	 0.104496	 0.500000 
S14	 0.312911	 0.118875	 1.000000 
S15	 0.312911	 0.118875	 0.000000 
S16	 0.219964	 0.093970	 1.000000 
S17	 0.219964	 0.093970	 0.000000 
Mo18	 0.112639	 0.122728	 0.500000 
Mo19	 0.205585	 0.147633	 0.500000 
S20	 0.151923	 0.162012	 1.000000 
S21	 0.151923	 0.162012	 0.000000 
S22	 0.058977	 0.137107	 1.000000 
S23	 0.058977	 0.137107	 0.000000 
Mo24	 0.044598	 0.190769	 0.500000 
S25	 0.727832	 0.057507	 1.000000 
S26	 0.727832	 0.057507	 0.000000 
Mo27	 0.620507	 0.086265	 0.500000 
Mo28	 0.713453	 0.111170	 0.500000 
S29	 0.659791	 0.125548	 1.000000 
S30	 0.659791	 0.125548	 0.000000 
S31	 0.566844	 0.100644	 1.000000 
S32	 0.566844	 0.100644	 0.000000 
Mo33	 0.459519	 0.129401	 0.500000 
Mo34	 0.552466	 0.154306	 0.500000 
S35	 0.498803	 0.168685	 1.000000 
S36	 0.498803	 0.168685	 0.000000 
S37	 0.405857	 0.143780	 1.000000 
S38	 0.405857	 0.143780	 0.000000 
Mo39	 0.298532	 0.172538	 0.500000 
Mo40	 0.391478	 0.197443	 0.500000 
S41	 0.337815	 0.211822	 1.000000 
S42	 0.337815	 0.211822	 0.000000 
S43	 0.244869	 0.186917	 1.000000 
S44	 0.244869	 0.186917	 0.000000 
Mo45	 0.137544	 0.215674	 0.500000 
Mo46	 0.230490	 0.240579	 0.500000 
S47	 0.176828	 0.254958	 1.000000 
S48	 0.176828	 0.254958	 0.000000 
S49	 0.083882	 0.230053	 1.000000 
S50	 0.083882	 0.230053	 0.000000 
Mo51	 0.069503	 0.283716	 0.500000 
S52	 0.015840	 0.298095	 1.000000 
S53	 0.015840	 0.298095	 0.000000 
Mo54	 0.781495	 0.043128	 0.500000 
Mo55	 0.874441	 0.068033	 0.500000 
S56	 0.820778	 0.082412	 1.000000 
S57	 0.820778	 0.082412	 0.000000 
S58	 0.752737	 0.150453	 1.000000 
S59	 0.752737	 0.150453	 0.000000 
Mo60	 0.645412	 0.179211	 0.500000 
Mo61	 0.738358	 0.204116	 0.500000 
S62	 0.684696	 0.218495	 1.000000 
S63	 0.684696	 0.218495	 0.000000 
S64	 0.591749	 0.193590	 1.000000 
S65	 0.591749	 0.193590	 0.000000 
Mo66	 0.484424	 0.222348	 0.500000 
Mo67	 0.577370	 0.247252	 0.500000 
S68	 0.523708	 0.261631	 1.000000 
S69	 0.523708	 0.261631	 0.000000 
S70	 0.430762	 0.236726	 1.000000 
S71	 0.430762	 0.236726	 0.000000 
Mo72	 0.323437	 0.265484	 0.500000 
Mo73	 0.416383	 0.290389	 0.500000 
S74	 0.362720	 0.304768	 1.000000 
S75	 0.362720	 0.304768	 0.000000 
S76	 0.269774	 0.279863	 1.000000 
S77	 0.269774	 0.279863	 0.000000 
Mo78	 0.162449	 0.308621	 0.500000 
Mo79	 0.255395	 0.333525	 0.500000 
S80	 0.201733	 0.347904	 1.000000 
S81	 0.201733	 0.347904	 0.000000 
S82	 0.108786	 0.322999	 1.000000 
S83	 0.108786	 0.322999	 0.000000 
Mo84	 0.001461	 0.351757	 0.500000 
Mo85	 0.094408	 0.376662	 0.500000 
S86	 0.040745	 0.391041	 1.000000 
S87	 0.040745	 0.391041	 0.000000 
Mo88	 0.806399	 0.136075	 0.500000 
Mo89	 0.899346	 0.160979	 0.500000 
S90	 0.845683	 0.175358	 1.000000 
S91	 0.845683	 0.175358	 0.000000 
S92	 0.777642	 0.243400	 1.000000 
S93	 0.777642	 0.243400	 0.000000 
Mo94	 0.670317	 0.272157	 0.500000 
Mo95	 0.763263	 0.297062	 0.500000 
S96	 0.709600	 0.311441	 1.000000 
S97	 0.709600	 0.311441	 0.000000 
S98	 0.616654	 0.286536	 1.000000 
S99	 0.616654	 0.286536	 0.000000 
Mo100	 0.509329	 0.315294	 0.500000 
Mo101	 0.602275	 0.340199	 0.500000 
S102	 0.548613	 0.354578	 1.000000 
S103	 0.548613	 0.354578	 0.000000 
S104	 0.455667	 0.329673	 1.000000 
S105	 0.455667	 0.329673	 0.000000 
Mo106	 0.348341	 0.358430	 0.500000 
Mo107	 0.441288	 0.383335	 0.500000 
S108	 0.387625	 0.397714	 1.000000 
S109	 0.387625	 0.397714	 0.000000 
S110	 0.294679	 0.372809	 1.000000 
S111	 0.294679	 0.372809	 0.000000 
Mo112	 0.187354	 0.401567	 0.500000 
Mo113	 0.280300	 0.426472	 0.500000 
S114	 0.226638	 0.440851	 1.000000 
S115	 0.226638	 0.440851	 0.000000 
S116	 0.133691	 0.415946	 1.000000 
S117	 0.133691	 0.415946	 0.000000 
Mo118	 0.026366	 0.444703	 0.500000 
Mo119	 0.119312	 0.469608	 0.500000 
S120	 0.065650	 0.483987	 1.000000 
S121	 0.065650	 0.483987	 0.000000 
Mo122	 0.831304	 0.229021	 0.500000 
Mo123	 0.924251	 0.253926	 0.500000 
S124	 0.870588	 0.268304	 1.000000 
S125	 0.870588	 0.268304	 0.000000 
S126	 0.802547	 0.336346	 1.000000 
S127	 0.802547	 0.336346	 0.000000 
Mo128	 0.695222	 0.365104	 0.500000 
Mo129	 0.788168	 0.390008	 0.500000 
S130	 0.734505	 0.404387	 1.000000 
S131	 0.734505	 0.404387	 0.000000 
S132	 0.641559	 0.379482	 1.000000 
S133	 0.641559	 0.379482	 0.000000 
Mo134	 0.534234	 0.408240	 0.500000 
Mo135	 0.627180	 0.433145	 0.500000 
S136	 0.573518	 0.447524	 1.000000 
S137	 0.573518	 0.447524	 0.000000 
S138	 0.480571	 0.422619	 1.000000 
S139	 0.480571	 0.422619	 0.000000 
Mo140	 0.373246	 0.451377	 0.500000 
Mo141	 0.466193	 0.476281	 0.500000 
S142	 0.412530	 0.490660	 1.000000 
S143	 0.412530	 0.490660	 0.000000 
S144	 0.319584	 0.465755	 1.000000 
S145	 0.319584	 0.465755	 0.000000 
Mo146	 0.212259	 0.494513	 0.500000 
Mo147	 0.305205	 0.519418	 0.500000 
S148	 0.251542	 0.533797	 1.000000 
S149	 0.251542	 0.533797	 0.000000 
S150	 0.158596	 0.508892	 1.000000 
S151	 0.158596	 0.508892	 0.000000 
Mo152	 0.051271	 0.537650	 0.500000 
Mo153	 0.144217	 0.562554	 0.500000 
S154	 0.090555	 0.576933	 1.000000 
S155	 0.090555	 0.576933	 0.000000 
Mo156	 0.856209	 0.321967	 0.500000 
Mo157	 0.949156	 0.346872	 0.500000 
S158	 0.895493	 0.361251	 1.000000 
S159	 0.895493	 0.361251	 0.000000 
S160	 0.827452	 0.429292	 1.000000 
S161	 0.827452	 0.429292	 0.000000 
Mo162	 0.720126	 0.458050	 0.500000 
Mo163	 0.813073	 0.482955	 0.500000 
S164	 0.759410	 0.497334	 1.000000 
S165	 0.759410	 0.497334	 0.000000 
S166	 0.666464	 0.472429	 1.000000 
S167	 0.666464	 0.472429	 0.000000 
Mo168	 0.559139	 0.501186	 0.500000 
Mo169	 0.652085	 0.526091	 0.500000 
S170	 0.598423	 0.540470	 1.000000 
S171	 0.598423	 0.540470	 0.000000 
S172	 0.505476	 0.515565	 1.000000 
S173	 0.505476	 0.515565	 0.000000 
Mo174	 0.398151	 0.544323	 0.500000 
Mo175	 0.491097	 0.569228	 0.500000 
S176	 0.437435	 0.583607	 1.000000 
S177	 0.437435	 0.583607	 0.000000 
S178	 0.344489	 0.558702	 1.000000 
S179	 0.344489	 0.558702	 0.000000 
Mo180	 0.237164	 0.587459	 0.500000 
Mo181	 0.330110	 0.612364	 0.500000 
S182	 0.276447	 0.626743	 1.000000 
S183	 0.276447	 0.626743	 0.000000 
S184	 0.183501	 0.601838	 1.000000 
S185	 0.183501	 0.601838	 0.000000 
Mo186	 0.076176	 0.630596	 0.500000 
Mo187	 0.169122	 0.655501	 0.500000 
S188	 0.115460	 0.669880	 1.000000 
S189	 0.115460	 0.669880	 0.000000 
S190	 0.022513	 0.644975	 1.000000 
S191	 0.022513	 0.644975	 0.000000 
Mo192	 0.881114	 0.414913	 0.500000 
Mo193	 0.974060	 0.439818	 0.500000 
S194	 0.920398	 0.454197	 1.000000 
S195	 0.920398	 0.454197	 0.000000 
S196	 0.852356	 0.522238	 1.000000 
S197	 0.852356	 0.522238	 0.000000 
Mo198	 0.745031	 0.550996	 0.500000 
Mo199	 0.837978	 0.575901	 0.500000 
S200	 0.784315	 0.590280	 1.000000 
S201	 0.784315	 0.590280	 0.000000 
S202	 0.691369	 0.565375	 1.000000 
S203	 0.691369	 0.565375	 0.000000 
Mo204	 0.584044	 0.594133	 0.500000 
Mo205	 0.676990	 0.619037	 0.500000 
S206	 0.623327	 0.633416	 1.000000 
S207	 0.623327	 0.633416	 0.000000 
S208	 0.530381	 0.608511	 1.000000 
S209	 0.530381	 0.608511	 0.000000 
Mo210	 0.423056	 0.637269	 0.500000 
Mo211	 0.516002	 0.662174	 0.500000 
S212	 0.462340	 0.676553	 1.000000 
S213	 0.462340	 0.676553	 0.000000 
S214	 0.369394	 0.651648	 1.000000 
S215	 0.369394	 0.651648	 0.000000 
Mo216	 0.262068	 0.680406	 0.500000 
Mo217	 0.355015	 0.705310	 0.500000 
S218	 0.301352	 0.719689	 1.000000 
S219	 0.301352	 0.719689	 0.000000 
S220	 0.208406	 0.694784	 1.000000 
S221	 0.208406	 0.694784	 0.000000 
Mo222	 0.101081	 0.723542	 0.500000 
Mo223	 0.194027	 0.748447	 0.500000 
S224	 0.140365	 0.762826	 1.000000 
S225	 0.140365	 0.762826	 0.000000 
S226	 0.047418	 0.737921	 1.000000 
S227	 0.047418	 0.737921	 0.000000 
Mo228	 0.906019	 0.507860	 0.500000 
Mo229	 0.998965	 0.532764	 0.500000 
S230	 0.945303	 0.547143	 1.000000 
S231	 0.945303	 0.547143	 0.000000 
S232	 0.877261	 0.615185	 1.000000 
S233	 0.877261	 0.615185	 0.000000 
Mo234	 0.769936	 0.643942	 0.500000 
Mo235	 0.862882	 0.668847	 0.500000 
S236	 0.809220	 0.683226	 1.000000 
S237	 0.809220	 0.683226	 0.000000 
S238	 0.716274	 0.658321	 1.000000 
S239	 0.716274	 0.658321	 0.000000 
Mo240	 0.608949	 0.687079	 0.500000 
Mo241	 0.701895	 0.711984	 0.500000 
S242	 0.648232	 0.726363	 1.000000 
S243	 0.648232	 0.726363	 0.000000 
S244	 0.555286	 0.701458	 1.000000 
S245	 0.555286	 0.701458	 0.000000 
Mo246	 0.447961	 0.730215	 0.500000 
Mo247	 0.540907	 0.755120	 0.500000 
S248	 0.487245	 0.769499	 1.000000 
S249	 0.487245	 0.769499	 0.000000 
S250	 0.394298	 0.744594	 1.000000 
S251	 0.394298	 0.744594	 0.000000 
Mo252	 0.286973	 0.773352	 0.500000 
Mo253	 0.379920	 0.798257	 0.500000 
S254	 0.326257	 0.812636	 1.000000 
S255	 0.326257	 0.812636	 0.000000 
S256	 0.233311	 0.787731	 1.000000 
S257	 0.233311	 0.787731	 0.000000 
Mo258	 0.125986	 0.816488	 0.500000 
Mo259	 0.218932	 0.841393	 0.500000 
S260	 0.165269	 0.855772	 1.000000 
S261	 0.165269	 0.855772	 0.000000 
S262	 0.072323	 0.830867	 1.000000 
S263	 0.072323	 0.830867	 0.000000 
Mo264	 0.930924	 0.600806	 0.500000 
S265	 0.970208	 0.640090	 1.000000 
S266	 0.970208	 0.640090	 0.000000 
S267	 0.902166	 0.708131	 1.000000 
S268	 0.902166	 0.708131	 0.000000 
Mo269	 0.794841	 0.736889	 0.500000 
Mo270	 0.887787	 0.761793	 0.500000 
S271	 0.834125	 0.776172	 1.000000 
S272	 0.834125	 0.776172	 0.000000 
S273	 0.741179	 0.751267	 1.000000 
S274	 0.741179	 0.751267	 0.000000 
Mo275	 0.633853	 0.780025	 0.500000 
Mo276	 0.726800	 0.804930	 0.500000 
S277	 0.673137	 0.819309	 1.000000 
S278	 0.673137	 0.819309	 0.000000 
S279	 0.580191	 0.794404	 1.000000 
S280	 0.580191	 0.794404	 0.000000 
Mo281	 0.472866	 0.823162	 0.500000 
Mo282	 0.565812	 0.848066	 0.500000 
S283	 0.512150	 0.862445	 1.000000 
S284	 0.512150	 0.862445	 0.000000 
S285	 0.419203	 0.837540	 1.000000 
S286	 0.419203	 0.837540	 0.000000 
Mo287	 0.311878	 0.866298	 0.500000 
Mo288	 0.404824	 0.891203	 0.500000 
S289	 0.351162	 0.905582	 1.000000 
S290	 0.351162	 0.905582	 0.000000 
S291	 0.258216	 0.880677	 1.000000 
S292	 0.258216	 0.880677	 0.000000 
Mo293	 0.150891	 0.909435	 0.500000 
Mo294	 0.243837	 0.934339	 0.500000 
S295	 0.190174	 0.948718	 1.000000 
S296	 0.190174	 0.948718	 0.000000 
S297	 0.097228	 0.923813	 1.000000 
S298	 0.097228	 0.923813	 0.000000 
Mo299	 0.955829	 0.693752	 0.500000 
S300	 0.995112	 0.733036	 1.000000 
S301	 0.995112	 0.733036	 0.000000 
S302	 0.927071	 0.801077	 1.000000 
S303	 0.927071	 0.801077	 0.000000 
Mo304	 0.819746	 0.829835	 0.500000 
Mo305	 0.912692	 0.854740	 0.500000 
S306	 0.859030	 0.869119	 1.000000 
S307	 0.859030	 0.869119	 0.000000 
S308	 0.766083	 0.844214	 1.000000 
S309	 0.766083	 0.844214	 0.000000 
Mo310	 0.658758	 0.872971	 0.500000 
Mo311	 0.751705	 0.897876	 0.500000 
S312	 0.698042	 0.912255	 1.000000 
S313	 0.698042	 0.912255	 0.000000 
S314	 0.605096	 0.887350	 1.000000 
S315	 0.605096	 0.887350	 0.000000 
Mo316	 0.497771	 0.916108	 0.500000 
Mo317	 0.590717	 0.941013	 0.500000 
S318	 0.537054	 0.955392	 1.000000 
S319	 0.537054	 0.955392	 0.000000 
S320	 0.444108	 0.930487	 1.000000 
S321	 0.444108	 0.930487	 0.000000 
Mo322	 0.336783	 0.959244	 0.500000 
Mo323	 0.429729	 0.984149	 0.500000 
S324	 0.376067	 0.998528	 1.000000 
S325	 0.376067	 0.998528	 0.000000 
S326	 0.283121	 0.973623	 1.000000 
S327	 0.283121	 0.973623	 0.000000 
Mo328	 0.980734	 0.786698	 0.500000 
#                 ---end-of-data-block---
