data_Single Layer of MoS2nx 10 ny 6 nz 1
_cell_length_a               32.423991
_cell_length_b               32.423991
_cell_length_c               3.080000
_cell_angle_alpha          90.000000
_cell_angle_beta           90.000000
_cell_angle_gamma          90.000000
_symmetry_cell_setting          Triclinic
_symmetry_space_group_name_H-M 'P 1' 
loop_
_atom_site_label
_atom_site_fract_x
_atom_site_fract_y
_atom_site_fract_z
S1	 0.771033	 0.020827	 1.000000 
S2	 0.771033	 0.020827	 0.000000 
Mo3	 0.663708	 0.049584	 0.500000 
Mo4	 0.756654	 0.074489	 0.500000 
S5	 0.702991	 0.088868	 1.000000 
S6	 0.702991	 0.088868	 0.000000 
S7	 0.610045	 0.063963	 1.000000 
S8	 0.610045	 0.063963	 0.000000 
Mo9	 0.502720	 0.092721	 0.500000 
Mo10	 0.595666	 0.117626	 0.500000 
S11	 0.542004	 0.132005	 1.000000 
S12	 0.542004	 0.132005	 0.000000 
S13	 0.449058	 0.107100	 1.000000 
S14	 0.449058	 0.107100	 0.000000 
Mo15	 0.341732	 0.135857	 0.500000 
Mo16	 0.434679	 0.160762	 0.500000 
S17	 0.381016	 0.175141	 1.000000 
S18	 0.381016	 0.175141	 0.000000 
S19	 0.288070	 0.150236	 1.000000 
S20	 0.288070	 0.150236	 0.000000 
Mo21	 0.180745	 0.178994	 0.500000 
Mo22	 0.273691	 0.203899	 0.500000 
S23	 0.220029	 0.218278	 1.000000 
S24	 0.220029	 0.218278	 0.000000 
S25	 0.127082	 0.193373	 1.000000 
S26	 0.127082	 0.193373	 0.000000 
Mo27	 0.019757	 0.222130	 0.500000 
Mo28	 0.112703	 0.247035	 0.500000 
S29	 0.059041	 0.261414	 1.000000 
S30	 0.059041	 0.261414	 0.000000 
Mo31	 0.824695	 0.006448	 0.500000 
S32	 0.863979	 0.045732	 1.000000 
S33	 0.863979	 0.045732	 0.000000 
S34	 0.795938	 0.113773	 1.000000 
S35	 0.795938	 0.113773	 0.000000 
Mo36	 0.688613	 0.142531	 0.500000 
Mo37	 0.781559	 0.167435	 0.500000 
S38	 0.727896	 0.181814	 1.000000 
S39	 0.727896	 0.181814	 0.000000 
S40	 0.634950	 0.156909	 1.000000 
S41	 0.634950	 0.156909	 0.000000 
Mo42	 0.527625	 0.185667	 0.500000 
Mo43	 0.620571	 0.210572	 0.500000 
S44	 0.566909	 0.224951	 1.000000 
S45	 0.566909	 0.224951	 0.000000 
S46	 0.473962	 0.200046	 1.000000 
S47	 0.473962	 0.200046	 0.000000 
Mo48	 0.366637	 0.228804	 0.500000 
Mo49	 0.459584	 0.253709	 0.500000 
S50	 0.405921	 0.268087	 1.000000 
S51	 0.405921	 0.268087	 0.000000 
S52	 0.312975	 0.243182	 1.000000 
S53	 0.312975	 0.243182	 0.000000 
Mo54	 0.205650	 0.271940	 0.500000 
Mo55	 0.298596	 0.296845	 0.500000 
S56	 0.244933	 0.311224	 1.000000 
S57	 0.244933	 0.311224	 0.000000 
S58	 0.151987	 0.286319	 1.000000 
S59	 0.151987	 0.286319	 0.000000 
Mo60	 0.044662	 0.315077	 0.500000 
Mo61	 0.137608	 0.339982	 0.500000 
S62	 0.083946	 0.354360	 1.000000 
S63	 0.083946	 0.354360	 0.000000 
Mo64	 0.849600	 0.099394	 0.500000 
S65	 0.888884	 0.138678	 1.000000 
S66	 0.888884	 0.138678	 0.000000 
S67	 0.820843	 0.206719	 1.000000 
S68	 0.820843	 0.206719	 0.000000 
Mo69	 0.713517	 0.235477	 0.500000 
Mo70	 0.806464	 0.260382	 0.500000 
S71	 0.752801	 0.274761	 1.000000 
S72	 0.752801	 0.274761	 0.000000 
S73	 0.659855	 0.249856	 1.000000 
S74	 0.659855	 0.249856	 0.000000 
Mo75	 0.552530	 0.278613	 0.500000 
Mo76	 0.645476	 0.303518	 0.500000 
S77	 0.591814	 0.317897	 1.000000 
S78	 0.591814	 0.317897	 0.000000 
S79	 0.498867	 0.292992	 1.000000 
S80	 0.498867	 0.292992	 0.000000 
Mo81	 0.391542	 0.321750	 0.500000 
Mo82	 0.484488	 0.346655	 0.500000 
S83	 0.430826	 0.361034	 1.000000 
S84	 0.430826	 0.361034	 0.000000 
S85	 0.337880	 0.336129	 1.000000 
S86	 0.337880	 0.336129	 0.000000 
Mo87	 0.230555	 0.364886	 0.500000 
Mo88	 0.323501	 0.389791	 0.500000 
S89	 0.269838	 0.404170	 1.000000 
S90	 0.269838	 0.404170	 0.000000 
S91	 0.176892	 0.379265	 1.000000 
S92	 0.176892	 0.379265	 0.000000 
Mo93	 0.069567	 0.408023	 0.500000 
Mo94	 0.162513	 0.432928	 0.500000 
S95	 0.108851	 0.447307	 1.000000 
S96	 0.108851	 0.447307	 0.000000 
S97	 0.015904	 0.422402	 1.000000 
S98	 0.015904	 0.422402	 0.000000 
Mo99	 0.874505	 0.192340	 0.500000 
Mo100	 0.001526	 0.476064	 0.500000 
S101	 0.913789	 0.231624	 1.000000 
S102	 0.913789	 0.231624	 0.000000 
S103	 0.845747	 0.299665	 1.000000 
S104	 0.845747	 0.299665	 0.000000 
Mo105	 0.738422	 0.328423	 0.500000 
Mo106	 0.831369	 0.353328	 0.500000 
S107	 0.777706	 0.367707	 1.000000 
S108	 0.777706	 0.367707	 0.000000 
S109	 0.684760	 0.342802	 1.000000 
S110	 0.684760	 0.342802	 0.000000 
Mo111	 0.577435	 0.371560	 0.500000 
Mo112	 0.670381	 0.396465	 0.500000 
S113	 0.616718	 0.410843	 1.000000 
S114	 0.616718	 0.410843	 0.000000 
S115	 0.523772	 0.385938	 1.000000 
S116	 0.523772	 0.385938	 0.000000 
Mo117	 0.416447	 0.414696	 0.500000 
Mo118	 0.509393	 0.439601	 0.500000 
S119	 0.455731	 0.453980	 1.000000 
S120	 0.455731	 0.453980	 0.000000 
S121	 0.362785	 0.429075	 1.000000 
S122	 0.362785	 0.429075	 0.000000 
Mo123	 0.255459	 0.457833	 0.500000 
Mo124	 0.348406	 0.482738	 0.500000 
S125	 0.294743	 0.497116	 1.000000 
S126	 0.294743	 0.497116	 0.000000 
S127	 0.201797	 0.472211	 1.000000 
S128	 0.201797	 0.472211	 0.000000 
Mo129	 0.094472	 0.500969	 0.500000 
Mo130	 0.187418	 0.525874	 0.500000 
S131	 0.133756	 0.540253	 1.000000 
S132	 0.133756	 0.540253	 0.000000 
S133	 0.040809	 0.515348	 1.000000 
S134	 0.040809	 0.515348	 0.000000 
Mo135	 0.899410	 0.285287	 0.500000 
Mo136	 0.026430	 0.569011	 0.500000 
S137	 0.938694	 0.324570	 1.000000 
S138	 0.938694	 0.324570	 0.000000 
S139	 0.870652	 0.392612	 1.000000 
S140	 0.870652	 0.392612	 0.000000 
Mo141	 0.763327	 0.421369	 0.500000 
Mo142	 0.856273	 0.446274	 0.500000 
S143	 0.802611	 0.460653	 1.000000 
S144	 0.802611	 0.460653	 0.000000 
S145	 0.709665	 0.435748	 1.000000 
S146	 0.709665	 0.435748	 0.000000 
Mo147	 0.602340	 0.464506	 0.500000 
Mo148	 0.695286	 0.489411	 0.500000 
S149	 0.641623	 0.503790	 1.000000 
S150	 0.641623	 0.503790	 0.000000 
S151	 0.548677	 0.478885	 1.000000 
S152	 0.548677	 0.478885	 0.000000 
Mo153	 0.441352	 0.507642	 0.500000 
Mo154	 0.534298	 0.532547	 0.500000 
S155	 0.480636	 0.546926	 1.000000 
S156	 0.480636	 0.546926	 0.000000 
S157	 0.387689	 0.522021	 1.000000 
S158	 0.387689	 0.522021	 0.000000 
Mo159	 0.280364	 0.550779	 0.500000 
Mo160	 0.373311	 0.575684	 0.500000 
S161	 0.319648	 0.590063	 1.000000 
S162	 0.319648	 0.590063	 0.000000 
S163	 0.226702	 0.565158	 1.000000 
S164	 0.226702	 0.565158	 0.000000 
Mo165	 0.119377	 0.593915	 0.500000 
Mo166	 0.212323	 0.618820	 0.500000 
S167	 0.158660	 0.633199	 1.000000 
S168	 0.158660	 0.633199	 0.000000 
S169	 0.065714	 0.608294	 1.000000 
S170	 0.065714	 0.608294	 0.000000 
Mo171	 0.924315	 0.378233	 0.500000 
Mo172	 0.051335	 0.661957	 0.500000 
S173	 0.963599	 0.417517	 1.000000 
S174	 0.963599	 0.417517	 0.000000 
S175	 0.895557	 0.485558	 1.000000 
S176	 0.895557	 0.485558	 0.000000 
Mo177	 0.788232	 0.514316	 0.500000 
Mo178	 0.881178	 0.539221	 0.500000 
S179	 0.827516	 0.553599	 1.000000 
S180	 0.827516	 0.553599	 0.000000 
S181	 0.734570	 0.528694	 1.000000 
S182	 0.734570	 0.528694	 0.000000 
Mo183	 0.627244	 0.557452	 0.500000 
Mo184	 0.720191	 0.582357	 0.500000 
S185	 0.666528	 0.596736	 1.000000 
S186	 0.666528	 0.596736	 0.000000 
S187	 0.573582	 0.571831	 1.000000 
S188	 0.573582	 0.571831	 0.000000 
Mo189	 0.466257	 0.600589	 0.500000 
Mo190	 0.559203	 0.625494	 0.500000 
S191	 0.505541	 0.639872	 1.000000 
S192	 0.505541	 0.639872	 0.000000 
S193	 0.412594	 0.614967	 1.000000 
S194	 0.412594	 0.614967	 0.000000 
Mo195	 0.305269	 0.643725	 0.500000 
Mo196	 0.398215	 0.668630	 0.500000 
S197	 0.344553	 0.683009	 1.000000 
S198	 0.344553	 0.683009	 0.000000 
S199	 0.251607	 0.658104	 1.000000 
S200	 0.251607	 0.658104	 0.000000 
Mo201	 0.144282	 0.686862	 0.500000 
Mo202	 0.237228	 0.711767	 0.500000 
S203	 0.183565	 0.726145	 1.000000 
S204	 0.183565	 0.726145	 0.000000 
S205	 0.090619	 0.701241	 1.000000 
S206	 0.090619	 0.701241	 0.000000 
Mo207	 0.949220	 0.471179	 0.500000 
Mo208	 0.076240	 0.754903	 0.500000 
S209	 0.988503	 0.510463	 1.000000 
S210	 0.988503	 0.510463	 0.000000 
S211	 0.920462	 0.578504	 1.000000 
S212	 0.920462	 0.578504	 0.000000 
Mo213	 0.813137	 0.607262	 0.500000 
Mo214	 0.906083	 0.632167	 0.500000 
S215	 0.852421	 0.646546	 1.000000 
S216	 0.852421	 0.646546	 0.000000 
S217	 0.759474	 0.621641	 1.000000 
S218	 0.759474	 0.621641	 0.000000 
Mo219	 0.652149	 0.650398	 0.500000 
Mo220	 0.745096	 0.675303	 0.500000 
S221	 0.691433	 0.689682	 1.000000 
S222	 0.691433	 0.689682	 0.000000 
S223	 0.598487	 0.664777	 1.000000 
S224	 0.598487	 0.664777	 0.000000 
Mo225	 0.491162	 0.693535	 0.500000 
Mo226	 0.584108	 0.718440	 0.500000 
S227	 0.530445	 0.732819	 1.000000 
S228	 0.530445	 0.732819	 0.000000 
S229	 0.437499	 0.707914	 1.000000 
S230	 0.437499	 0.707914	 0.000000 
Mo231	 0.330174	 0.736671	 0.500000 
Mo232	 0.423120	 0.761576	 0.500000 
S233	 0.369458	 0.775955	 1.000000 
S234	 0.369458	 0.775955	 0.000000 
S235	 0.276512	 0.751050	 1.000000 
S236	 0.276512	 0.751050	 0.000000 
Mo237	 0.169186	 0.779808	 0.500000 
Mo238	 0.262133	 0.804713	 0.500000 
S239	 0.208470	 0.819092	 1.000000 
S240	 0.208470	 0.819092	 0.000000 
S241	 0.115524	 0.794187	 1.000000 
S242	 0.115524	 0.794187	 0.000000 
Mo243	 0.974125	 0.564125	 0.500000 
Mo244	 0.101145	 0.847849	 0.500000 
S245	 0.945367	 0.671450	 1.000000 
S246	 0.945367	 0.671450	 0.000000 
Mo247	 0.838042	 0.700208	 0.500000 
Mo248	 0.930988	 0.725113	 0.500000 
S249	 0.877326	 0.739492	 1.000000 
S250	 0.877326	 0.739492	 0.000000 
S251	 0.784379	 0.714587	 1.000000 
S252	 0.784379	 0.714587	 0.000000 
Mo253	 0.677054	 0.743345	 0.500000 
Mo254	 0.770000	 0.768250	 0.500000 
S255	 0.716338	 0.782628	 1.000000 
S256	 0.716338	 0.782628	 0.000000 
S257	 0.623392	 0.757723	 1.000000 
S258	 0.623392	 0.757723	 0.000000 
Mo259	 0.516067	 0.786481	 0.500000 
Mo260	 0.609013	 0.811386	 0.500000 
S261	 0.555350	 0.825765	 1.000000 
S262	 0.555350	 0.825765	 0.000000 
S263	 0.462404	 0.800860	 1.000000 
S264	 0.462404	 0.800860	 0.000000 
Mo265	 0.355079	 0.829618	 0.500000 
Mo266	 0.448025	 0.854523	 0.500000 
S267	 0.394363	 0.868901	 1.000000 
S268	 0.394363	 0.868901	 0.000000 
S269	 0.301416	 0.843997	 1.000000 
S270	 0.301416	 0.843997	 0.000000 
Mo271	 0.194091	 0.872754	 0.500000 
Mo272	 0.287038	 0.897659	 0.500000 
S273	 0.233375	 0.912038	 1.000000 
S274	 0.233375	 0.912038	 0.000000 
S275	 0.140429	 0.887133	 1.000000 
S276	 0.140429	 0.887133	 0.000000 
Mo277	 0.999029	 0.657072	 0.500000 
Mo278	 0.126050	 0.940796	 0.500000 
S279	 0.970272	 0.764397	 1.000000 
S280	 0.970272	 0.764397	 0.000000 
Mo281	 0.862947	 0.793154	 0.500000 
Mo282	 0.955893	 0.818059	 0.500000 
S283	 0.902230	 0.832438	 1.000000 
S284	 0.902230	 0.832438	 0.000000 
S285	 0.809284	 0.807533	 1.000000 
S286	 0.809284	 0.807533	 0.000000 
Mo287	 0.701959	 0.836291	 0.500000 
Mo288	 0.794905	 0.861196	 0.500000 
S289	 0.741243	 0.875575	 1.000000 
S290	 0.741243	 0.875575	 0.000000 
S291	 0.648297	 0.850670	 1.000000 
S292	 0.648297	 0.850670	 0.000000 
Mo293	 0.540971	 0.879427	 0.500000 
Mo294	 0.633918	 0.904332	 0.500000 
S295	 0.580255	 0.918711	 1.000000 
S296	 0.580255	 0.918711	 0.000000 
S297	 0.487309	 0.893806	 1.000000 
S298	 0.487309	 0.893806	 0.000000 
Mo299	 0.379984	 0.922564	 0.500000 
Mo300	 0.472930	 0.947469	 0.500000 
S301	 0.419268	 0.961848	 1.000000 
S302	 0.419268	 0.961848	 0.000000 
S303	 0.326321	 0.936943	 1.000000 
S304	 0.326321	 0.936943	 0.000000 
Mo305	 0.218996	 0.965700	 0.500000 
Mo306	 0.311942	 0.990605	 0.500000 
S307	 0.165334	 0.980079	 1.000000 
S308	 0.165334	 0.980079	 0.000000 
S309	 0.995177	 0.857343	 1.000000 
S310	 0.995177	 0.857343	 0.000000 
Mo311	 0.887852	 0.886101	 0.500000 
S312	 0.834189	 0.900479	 1.000000 
S313	 0.834189	 0.900479	 0.000000 
Mo314	 0.726864	 0.929237	 0.500000 
Mo315	 0.570761	 0.024679	 0.500000 
S316	 0.517099	 0.039058	 1.000000 
S317	 0.517099	 0.039058	 0.000000 
S318	 0.673201	 0.943616	 1.000000 
S319	 0.673201	 0.943616	 0.000000 
Mo320	 0.565876	 0.972374	 0.500000 
Mo321	 0.409774	 0.067816	 0.500000 
S322	 0.356111	 0.082195	 1.000000 
S323	 0.356111	 0.082195	 0.000000 
S324	 0.512214	 0.986753	 1.000000 
S325	 0.512214	 0.986753	 0.000000 
Mo326	 0.248786	 0.110953	 0.500000 
S327	 0.195124	 0.125331	 1.000000 
S328	 0.195124	 0.125331	 0.000000 
Mo329	 0.087799	 0.154089	 0.500000 
S330	 0.034136	 0.168468	 1.000000 
S331	 0.034136	 0.168468	 0.000000 
#                 ---end-of-data-block---
