data_NiO [110] nx 6 ny 2 nz 1
_cell_length_a               30.187800
_cell_length_b               30.187800
_cell_length_c               2.866200
_cell_angle_alpha          90.000000
_cell_angle_beta           90.000000
_cell_angle_gamma          90.000000
_symmetry_cell_setting          Triclinic
_symmetry_space_group_name_H-M 'P 1' 
loop_
_atom_site_label
_atom_site_fract_x
_atom_site_fract_y
_atom_site_fract_z
Mn1	 0.420004	 0.138596	 0.000000 
Mn2	 0.404599	 0.219363	 0.500000 
Mn3	 0.244857	 0.216797	 0.000000 
Mn4	 0.214046	 0.378336	 0.000000 
Mn5	 0.229450	 0.297568	 0.500000 
Mn6	 0.198642	 0.459103	 0.500000 
Mn7	 0.187062	 0.542063	 0.000000 
Mn8	 0.171657	 0.622830	 0.500000 
Mn9	 0.011915	 0.620264	 0.000000 
Mn10	 0.431584	 0.055636	 0.500000 
Mn11	 0.564342	 0.221929	 0.000000 
Mn12	 0.548936	 0.302696	 0.500000 
Mn13	 0.389194	 0.300130	 0.000000 
Mn14	 0.358384	 0.461669	 0.000000 
Mn15	 0.373788	 0.380902	 0.500000 
Mn16	 0.342980	 0.542437	 0.500000 
Mn17	 0.331400	 0.625396	 0.000000 
Mn18	 0.315994	 0.706163	 0.500000 
Mn19	 0.156253	 0.703597	 0.000000 
Mn20	 0.591325	 0.058202	 0.000000 
Mn21	 0.140846	 0.784369	 0.500000 
Mn22	 0.575921	 0.138970	 0.500000 
Mn23	 0.708679	 0.305263	 0.000000 
Mn24	 0.693274	 0.386029	 0.500000 
Mn25	 0.533532	 0.383463	 0.000000 
Mn26	 0.502721	 0.545002	 0.000000 
Mn27	 0.518125	 0.464235	 0.500000 
Mn28	 0.487317	 0.625770	 0.500000 
Mn29	 0.475738	 0.708730	 0.000000 
Mn30	 0.460332	 0.789496	 0.500000 
Mn31	 0.300590	 0.786930	 0.000000 
Mn32	 0.735663	 0.141535	 0.000000 
Mn33	 0.285184	 0.867702	 0.500000 
Mn34	 0.720259	 0.222303	 0.500000 
Mn35	 0.853017	 0.388596	 0.000000 
Mn36	 0.837611	 0.469363	 0.500000 
Mn37	 0.677870	 0.466797	 0.000000 
Mn38	 0.647059	 0.628336	 0.000000 
Mn39	 0.662463	 0.547568	 0.500000 
Mn40	 0.631655	 0.709103	 0.500000 
Mn41	 0.620075	 0.792063	 0.000000 
Mn42	 0.604670	 0.872830	 0.500000 
Mn43	 0.444928	 0.870264	 0.000000 
Mn44	 0.880001	 0.224869	 0.000000 
Mn45	 0.429521	 0.951035	 0.500000 
Mn46	 0.864596	 0.305636	 0.500000 
Mn47	 0.997355	 0.471929	 0.000000 
Mn48	 0.981949	 0.552696	 0.500000 
Mn49	 0.822207	 0.550130	 0.000000 
Mn50	 0.791396	 0.711669	 0.000000 
Mn51	 0.806801	 0.630902	 0.500000 
Mn52	 0.775992	 0.792437	 0.500000 
Mn53	 0.764413	 0.875396	 0.000000 
Mn54	 0.749007	 0.956163	 0.500000 
Mn55	 0.589265	 0.953597	 0.000000 
Mn56	 0.275667	 0.055263	 0.000000 
Mn57	 0.260261	 0.136029	 0.500000 
Mn58	 0.966545	 0.633463	 0.000000 
Mn59	 0.069709	 0.295002	 0.000000 
Mn60	 0.951138	 0.714235	 0.500000 
Mn61	 0.054304	 0.375770	 0.500000 
Mn62	 0.042725	 0.458730	 0.000000 
Mn63	 0.027319	 0.539496	 0.500000 
#                 ---end-of-data-block---
