data_NiO [110] nx 6 ny 2 nz 1
_cell_length_a               30.187800
_cell_length_b               30.187800
_cell_length_c               2.866200
_cell_angle_alpha          90.000000
_cell_angle_beta           90.000000
_cell_angle_gamma          90.000000
_symmetry_cell_setting          Triclinic
_symmetry_space_group_name_H-M 'P 1' 
loop_
_atom_site_label
_atom_site_fract_x
_atom_site_fract_y
_atom_site_fract_z
Mn1	 0.471765	 0.058958	 0.000000 
Mn2	 0.435980	 0.132985	 0.500000 
Mn3	 0.282345	 0.089162	 0.000000 
Mn4	 0.210775	 0.237223	 0.000000 
Mn5	 0.246559	 0.163194	 0.500000 
Mn6	 0.174992	 0.311251	 0.500000 
Mn7	 0.142335	 0.388387	 0.000000 
Mn8	 0.106551	 0.462414	 0.500000 
Mn9	 0.589616	 0.176809	 0.000000 
Mn10	 0.553831	 0.250836	 0.500000 
Mn11	 0.400197	 0.207013	 0.000000 
Mn12	 0.328626	 0.355074	 0.000000 
Mn13	 0.364410	 0.281045	 0.500000 
Mn14	 0.292843	 0.429102	 0.500000 
Mn15	 0.260186	 0.506238	 0.000000 
Mn16	 0.224402	 0.580266	 0.500000 
Mn17	 0.070767	 0.536443	 0.000000 
Mn18	 0.658056	 0.025644	 0.000000 
Mn19	 0.034980	 0.610475	 0.500000 
Mn20	 0.622272	 0.099673	 0.500000 
Mn21	 0.707467	 0.294660	 0.000000 
Mn22	 0.671682	 0.368687	 0.500000 
Mn23	 0.518048	 0.324865	 0.000000 
Mn24	 0.446477	 0.472925	 0.000000 
Mn25	 0.482261	 0.398896	 0.500000 
Mn26	 0.410694	 0.546953	 0.500000 
Mn27	 0.378038	 0.624089	 0.000000 
Mn28	 0.342253	 0.698117	 0.500000 
Mn29	 0.188618	 0.654294	 0.000000 
Mn30	 0.775907	 0.143496	 0.000000 
Mn31	 0.152832	 0.728326	 0.500000 
Mn32	 0.740123	 0.217524	 0.500000 
Mn33	 0.825318	 0.412511	 0.000000 
Mn34	 0.789533	 0.486538	 0.500000 
Mn35	 0.635899	 0.442716	 0.000000 
Mn36	 0.564329	 0.590776	 0.000000 
Mn37	 0.600112	 0.516748	 0.500000 
Mn38	 0.528545	 0.664805	 0.500000 
Mn39	 0.495889	 0.741940	 0.000000 
Mn40	 0.460104	 0.815968	 0.500000 
Mn41	 0.306469	 0.772145	 0.000000 
Mn42	 0.893758	 0.261347	 0.000000 
Mn43	 0.270683	 0.846177	 0.500000 
Mn44	 0.857975	 0.335375	 0.500000 
Mn45	 0.943169	 0.530362	 0.000000 
Mn46	 0.907385	 0.604389	 0.500000 
Mn47	 0.753750	 0.560567	 0.000000 
Mn48	 0.682180	 0.708627	 0.000000 
Mn49	 0.717963	 0.634599	 0.500000 
Mn50	 0.646396	 0.782656	 0.500000 
Mn51	 0.613740	 0.859792	 0.000000 
Mn52	 0.577955	 0.933819	 0.500000 
Mn53	 0.424321	 0.889996	 0.000000 
Mn54	 0.388534	 0.964028	 0.500000 
Mn55	 0.975826	 0.453226	 0.500000 
Mn56	 0.318129	 0.015134	 0.500000 
Mn57	 0.871601	 0.678418	 0.000000 
Mn58	 0.800031	 0.826478	 0.000000 
Mn59	 0.835814	 0.752450	 0.500000 
Mn60	 0.764247	 0.900507	 0.500000 
Mn61	 0.024484	 0.270536	 0.000000 
#                 ---end-of-data-block---
