data_Pt structure along [001] nx 8 ny 8 nz 1
_cell_length_a               31.360000
_cell_length_b               31.360000
_cell_length_c               3.920000
_cell_angle_alpha          90.000000
_cell_angle_beta           90.000000
_cell_angle_gamma          90.000000
_symmetry_cell_setting          Triclinic
_symmetry_space_group_name_H-M 'P 1' 
loop_
_atom_site_label
_atom_site_fract_x
_atom_site_fract_y
_atom_site_fract_z
Pt1	 0.031680	 0.022080	 0.000000 
Pt2	 0.094180	 0.084580	 0.000000 
Pt3	 0.094180	 0.022080	 0.500000 
Pt4	 0.031680	 0.084580	 0.500000 
Pt5	 0.031680	 0.147080	 0.000000 
Pt6	 0.094180	 0.209580	 0.000000 
Pt7	 0.094180	 0.147080	 0.500000 
Pt8	 0.031680	 0.209580	 0.500000 
Pt9	 0.031680	 0.272080	 0.000000 
Pt10	 0.094180	 0.334580	 0.000000 
Pt11	 0.094180	 0.272080	 0.500000 
Pt12	 0.031680	 0.334580	 0.500000 
Pt13	 0.031680	 0.397080	 0.000000 
Pt14	 0.094180	 0.459580	 0.000000 
Pt15	 0.094180	 0.397080	 0.500000 
Pt16	 0.031680	 0.459580	 0.500000 
Pt17	 0.031680	 0.522080	 0.000000 
Pt18	 0.094180	 0.584580	 0.000000 
Pt19	 0.094180	 0.522080	 0.500000 
Pt20	 0.031680	 0.584580	 0.500000 
Pt21	 0.031680	 0.647080	 0.000000 
Pt22	 0.094180	 0.709580	 0.000000 
Pt23	 0.094180	 0.647080	 0.500000 
Pt24	 0.031680	 0.709580	 0.500000 
Pt25	 0.031680	 0.772080	 0.000000 
Pt26	 0.094180	 0.834580	 0.000000 
Pt27	 0.094180	 0.772080	 0.500000 
Pt28	 0.031680	 0.834580	 0.500000 
Pt29	 0.031680	 0.897080	 0.000000 
Pt30	 0.094180	 0.959580	 0.000000 
Pt31	 0.094180	 0.897080	 0.500000 
Pt32	 0.031680	 0.959580	 0.500000 
Pt33	 0.156680	 0.022080	 0.000000 
Pt34	 0.219180	 0.084580	 0.000000 
Pt35	 0.219180	 0.022080	 0.500000 
Pt36	 0.156680	 0.084580	 0.500000 
Pt37	 0.156680	 0.147080	 0.000000 
Pt38	 0.219180	 0.209580	 0.000000 
Pt39	 0.219180	 0.147080	 0.500000 
Pt40	 0.156680	 0.209580	 0.500000 
Pt41	 0.156680	 0.272080	 0.000000 
Pt42	 0.219180	 0.334580	 0.000000 
Pt43	 0.219180	 0.272080	 0.500000 
Pt44	 0.156680	 0.334580	 0.500000 
Pt45	 0.156680	 0.397080	 0.000000 
Pt46	 0.219180	 0.459580	 0.000000 
Pt47	 0.219180	 0.397080	 0.500000 
Pt48	 0.156680	 0.459580	 0.500000 
Pt49	 0.156680	 0.522080	 0.000000 
Pt50	 0.219180	 0.584580	 0.000000 
Pt51	 0.219180	 0.522080	 0.500000 
Pt52	 0.156680	 0.584580	 0.500000 
Pt53	 0.156680	 0.647080	 0.000000 
Pt54	 0.219180	 0.709580	 0.000000 
Pt55	 0.219180	 0.647080	 0.500000 
Pt56	 0.156680	 0.709580	 0.500000 
Pt57	 0.156680	 0.772080	 0.000000 
Pt58	 0.219180	 0.834580	 0.000000 
Pt59	 0.219180	 0.772080	 0.500000 
Pt60	 0.156680	 0.834580	 0.500000 
Pt61	 0.156680	 0.897080	 0.000000 
Pt62	 0.219180	 0.959580	 0.000000 
Pt63	 0.219180	 0.897080	 0.500000 
Pt64	 0.156680	 0.959580	 0.500000 
Pt65	 0.281680	 0.022080	 0.000000 
Pt66	 0.344180	 0.084580	 0.000000 
Pt67	 0.344180	 0.022080	 0.500000 
Pt68	 0.281680	 0.084580	 0.500000 
Pt69	 0.281680	 0.147080	 0.000000 
Pt70	 0.344180	 0.209580	 0.000000 
Pt71	 0.344180	 0.147080	 0.500000 
Pt72	 0.281680	 0.209580	 0.500000 
Pt73	 0.281680	 0.272080	 0.000000 
Pt74	 0.344180	 0.334580	 0.000000 
Pt75	 0.344180	 0.272080	 0.500000 
Pt76	 0.281680	 0.334580	 0.500000 
Pt77	 0.281680	 0.397080	 0.000000 
Pt78	 0.344180	 0.459580	 0.000000 
Pt79	 0.344180	 0.397080	 0.500000 
Pt80	 0.281680	 0.459580	 0.500000 
Pt81	 0.281680	 0.522080	 0.000000 
Pt82	 0.344180	 0.584580	 0.000000 
Pt83	 0.344180	 0.522080	 0.500000 
Pt84	 0.281680	 0.584580	 0.500000 
Pt85	 0.281680	 0.647080	 0.000000 
Pt86	 0.344180	 0.709580	 0.000000 
Pt87	 0.344180	 0.647080	 0.500000 
Pt88	 0.281680	 0.709580	 0.500000 
Pt89	 0.281680	 0.772080	 0.000000 
Pt90	 0.344180	 0.834580	 0.000000 
Pt91	 0.344180	 0.772080	 0.500000 
Pt92	 0.281680	 0.834580	 0.500000 
Pt93	 0.281680	 0.897080	 0.000000 
Pt94	 0.344180	 0.959580	 0.000000 
Pt95	 0.344180	 0.897080	 0.500000 
Pt96	 0.281680	 0.959580	 0.500000 
Pt97	 0.406680	 0.022080	 0.000000 
Pt98	 0.469180	 0.084580	 0.000000 
Pt99	 0.469180	 0.022080	 0.500000 
Pt100	 0.406680	 0.084580	 0.500000 
Pt101	 0.406680	 0.147080	 0.000000 
Pt102	 0.469180	 0.209580	 0.000000 
Pt103	 0.469180	 0.147080	 0.500000 
Pt104	 0.406680	 0.209580	 0.500000 
Pt105	 0.406680	 0.272080	 0.000000 
Pt106	 0.469180	 0.334580	 0.000000 
Pt107	 0.469180	 0.272080	 0.500000 
Pt108	 0.406680	 0.334580	 0.500000 
Pt109	 0.406680	 0.397080	 0.000000 
Pt110	 0.469180	 0.459580	 0.000000 
Pt111	 0.469180	 0.397080	 0.500000 
Pt112	 0.406680	 0.459580	 0.500000 
Pt113	 0.406680	 0.522080	 0.000000 
Pt114	 0.469180	 0.584580	 0.000000 
Pt115	 0.469180	 0.522080	 0.500000 
Pt116	 0.406680	 0.584580	 0.500000 
Pt117	 0.406680	 0.647080	 0.000000 
Pt118	 0.469180	 0.709580	 0.000000 
Pt119	 0.469180	 0.647080	 0.500000 
Pt120	 0.406680	 0.709580	 0.500000 
Pt121	 0.406680	 0.772080	 0.000000 
Pt122	 0.469180	 0.834580	 0.000000 
Pt123	 0.469180	 0.772080	 0.500000 
Pt124	 0.406680	 0.834580	 0.500000 
Pt125	 0.406680	 0.897080	 0.000000 
Pt126	 0.469180	 0.959580	 0.000000 
Pt127	 0.469180	 0.897080	 0.500000 
Pt128	 0.406680	 0.959580	 0.500000 
Pt129	 0.531680	 0.022080	 0.000000 
Pt130	 0.594180	 0.084580	 0.000000 
Pt131	 0.594180	 0.022080	 0.500000 
Pt132	 0.531680	 0.084580	 0.500000 
Pt133	 0.531680	 0.147080	 0.000000 
Pt134	 0.594180	 0.209580	 0.000000 
Pt135	 0.594180	 0.147080	 0.500000 
Pt136	 0.531680	 0.209580	 0.500000 
Pt137	 0.531680	 0.272080	 0.000000 
Pt138	 0.594180	 0.334580	 0.000000 
Pt139	 0.594180	 0.272080	 0.500000 
Pt140	 0.531680	 0.334580	 0.500000 
Pt141	 0.531680	 0.397080	 0.000000 
Pt142	 0.594180	 0.459580	 0.000000 
Pt143	 0.594180	 0.397080	 0.500000 
Pt144	 0.531680	 0.459580	 0.500000 
Pt145	 0.531680	 0.522080	 0.000000 
Pt146	 0.594180	 0.584580	 0.000000 
Pt147	 0.594180	 0.522080	 0.500000 
Pt148	 0.531680	 0.584580	 0.500000 
Pt149	 0.531680	 0.647080	 0.000000 
Pt150	 0.594180	 0.709580	 0.000000 
Pt151	 0.594180	 0.647080	 0.500000 
Pt152	 0.531680	 0.709580	 0.500000 
Pt153	 0.531680	 0.772080	 0.000000 
Pt154	 0.594180	 0.834580	 0.000000 
Pt155	 0.594180	 0.772080	 0.500000 
Pt156	 0.531680	 0.834580	 0.500000 
Pt157	 0.531680	 0.897080	 0.000000 
Pt158	 0.594180	 0.959580	 0.000000 
Pt159	 0.594180	 0.897080	 0.500000 
Pt160	 0.531680	 0.959580	 0.500000 
Pt161	 0.656680	 0.022080	 0.000000 
Pt162	 0.719180	 0.084580	 0.000000 
Pt163	 0.719180	 0.022080	 0.500000 
Pt164	 0.656680	 0.084580	 0.500000 
Pt165	 0.656680	 0.147080	 0.000000 
Pt166	 0.719180	 0.209580	 0.000000 
Pt167	 0.719180	 0.147080	 0.500000 
Pt168	 0.656680	 0.209580	 0.500000 
Pt169	 0.656680	 0.272080	 0.000000 
Pt170	 0.719180	 0.334580	 0.000000 
Pt171	 0.719180	 0.272080	 0.500000 
Pt172	 0.656680	 0.334580	 0.500000 
Pt173	 0.656680	 0.397080	 0.000000 
Pt174	 0.719180	 0.459580	 0.000000 
Pt175	 0.719180	 0.397080	 0.500000 
Pt176	 0.656680	 0.459580	 0.500000 
Pt177	 0.656680	 0.522080	 0.000000 
Pt178	 0.719180	 0.584580	 0.000000 
Pt179	 0.719180	 0.522080	 0.500000 
Pt180	 0.656680	 0.584580	 0.500000 
Pt181	 0.656680	 0.647080	 0.000000 
Pt182	 0.719180	 0.709580	 0.000000 
Pt183	 0.719180	 0.647080	 0.500000 
Pt184	 0.656680	 0.709580	 0.500000 
Pt185	 0.656680	 0.772080	 0.000000 
Pt186	 0.719180	 0.834580	 0.000000 
Pt187	 0.719180	 0.772080	 0.500000 
Pt188	 0.656680	 0.834580	 0.500000 
Pt189	 0.656680	 0.897080	 0.000000 
Pt190	 0.719180	 0.959580	 0.000000 
Pt191	 0.719180	 0.897080	 0.500000 
Pt192	 0.656680	 0.959580	 0.500000 
Pt193	 0.781680	 0.022080	 0.000000 
Pt194	 0.844180	 0.084580	 0.000000 
Pt195	 0.844180	 0.022080	 0.500000 
Pt196	 0.781680	 0.084580	 0.500000 
Pt197	 0.781680	 0.147080	 0.000000 
Pt198	 0.844180	 0.209580	 0.000000 
Pt199	 0.844180	 0.147080	 0.500000 
Pt200	 0.781680	 0.209580	 0.500000 
Pt201	 0.781680	 0.272080	 0.000000 
Pt202	 0.844180	 0.334580	 0.000000 
Pt203	 0.844180	 0.272080	 0.500000 
Pt204	 0.781680	 0.334580	 0.500000 
Pt205	 0.781680	 0.397080	 0.000000 
Pt206	 0.844180	 0.459580	 0.000000 
Pt207	 0.844180	 0.397080	 0.500000 
Pt208	 0.781680	 0.459580	 0.500000 
Pt209	 0.781680	 0.522080	 0.000000 
Pt210	 0.844180	 0.584580	 0.000000 
Pt211	 0.844180	 0.522080	 0.500000 
Pt212	 0.781680	 0.584580	 0.500000 
Pt213	 0.781680	 0.647080	 0.000000 
Pt214	 0.844180	 0.709580	 0.000000 
Pt215	 0.844180	 0.647080	 0.500000 
Pt216	 0.781680	 0.709580	 0.500000 
Pt217	 0.781680	 0.772080	 0.000000 
Pt218	 0.844180	 0.834580	 0.000000 
Pt219	 0.844180	 0.772080	 0.500000 
Pt220	 0.781680	 0.834580	 0.500000 
Pt221	 0.781680	 0.897080	 0.000000 
Pt222	 0.844180	 0.959580	 0.000000 
Pt223	 0.844180	 0.897080	 0.500000 
Pt224	 0.781680	 0.959580	 0.500000 
Pt225	 0.906680	 0.022080	 0.000000 
Pt226	 0.969180	 0.084580	 0.000000 
Pt227	 0.969180	 0.022080	 0.500000 
Pt228	 0.906680	 0.084580	 0.500000 
Pt229	 0.906680	 0.147080	 0.000000 
Pt230	 0.969180	 0.209580	 0.000000 
Pt231	 0.969180	 0.147080	 0.500000 
Pt232	 0.906680	 0.209580	 0.500000 
Pt233	 0.906680	 0.272080	 0.000000 
Pt234	 0.969180	 0.334580	 0.000000 
Pt235	 0.969180	 0.272080	 0.500000 
Pt236	 0.906680	 0.334580	 0.500000 
Pt237	 0.906680	 0.397080	 0.000000 
Pt238	 0.969180	 0.459580	 0.000000 
Pt239	 0.969180	 0.397080	 0.500000 
Pt240	 0.906680	 0.459580	 0.500000 
Pt241	 0.906680	 0.522080	 0.000000 
Pt242	 0.969180	 0.584580	 0.000000 
Pt243	 0.969180	 0.522080	 0.500000 
Pt244	 0.906680	 0.584580	 0.500000 
Pt245	 0.906680	 0.647080	 0.000000 
Pt246	 0.969180	 0.709580	 0.000000 
Pt247	 0.969180	 0.647080	 0.500000 
Pt248	 0.906680	 0.709580	 0.500000 
Pt249	 0.906680	 0.772080	 0.000000 
Pt250	 0.969180	 0.834580	 0.000000 
Pt251	 0.969180	 0.772080	 0.500000 
Pt252	 0.906680	 0.834580	 0.500000 
Pt253	 0.906680	 0.897080	 0.000000 
Pt254	 0.969180	 0.959580	 0.000000 
Pt255	 0.969180	 0.897080	 0.500000 
Pt256	 0.906680	 0.959580	 0.500000 
#                 ---end-of-data-block---
