data_Pt structure along [001] nx 8 ny 8 nz 1
_cell_length_a               31.360000
_cell_length_b               31.360000
_cell_length_c               3.920000
_cell_angle_alpha          90.000000
_cell_angle_beta           90.000000
_cell_angle_gamma          90.000000
_symmetry_cell_setting          Triclinic
_symmetry_space_group_name_H-M 'P 1' 
loop_
_atom_site_label
_atom_site_fract_x
_atom_site_fract_y
_atom_site_fract_z
Pt1	 0.214748	 0.012087	 0.000000 
Pt2	 0.237624	 0.097464	 0.000000 
Pt3	 0.268874	 0.043337	 0.500000 
Pt4	 0.183498	 0.066214	 0.500000 
Pt5	 0.152248	 0.120340	 0.000000 
Pt6	 0.175124	 0.205717	 0.000000 
Pt7	 0.206374	 0.151590	 0.500000 
Pt8	 0.120998	 0.174467	 0.500000 
Pt9	 0.089748	 0.228594	 0.000000 
Pt10	 0.112624	 0.313970	 0.000000 
Pt11	 0.143874	 0.259844	 0.500000 
Pt12	 0.058498	 0.282720	 0.500000 
Pt13	 0.027248	 0.336847	 0.000000 
Pt14	 0.050124	 0.422223	 0.000000 
Pt15	 0.081374	 0.368097	 0.500000 
Pt16	 0.018874	 0.476350	 0.500000 
Pt17	 0.408377	 0.051711	 0.000000 
Pt18	 0.354251	 0.020461	 0.500000 
Pt19	 0.323001	 0.074587	 0.000000 
Pt20	 0.345877	 0.159964	 0.000000 
Pt21	 0.377127	 0.105837	 0.500000 
Pt22	 0.291751	 0.128714	 0.500000 
Pt23	 0.260501	 0.182840	 0.000000 
Pt24	 0.283377	 0.268217	 0.000000 
Pt25	 0.314627	 0.214090	 0.500000 
Pt26	 0.229251	 0.236967	 0.500000 
Pt27	 0.198001	 0.291094	 0.000000 
Pt28	 0.220877	 0.376470	 0.000000 
Pt29	 0.252127	 0.322344	 0.500000 
Pt30	 0.166751	 0.345220	 0.500000 
Pt31	 0.135501	 0.399347	 0.000000 
Pt32	 0.158377	 0.484723	 0.000000 
Pt33	 0.189627	 0.430597	 0.500000 
Pt34	 0.104251	 0.453473	 0.500000 
Pt35	 0.073001	 0.507600	 0.000000 
Pt36	 0.095877	 0.592976	 0.000000 
Pt37	 0.127127	 0.538850	 0.500000 
Pt38	 0.041751	 0.561726	 0.500000 
Pt39	 0.010501	 0.615853	 0.000000 
Pt40	 0.033377	 0.701230	 0.000000 
Pt41	 0.064627	 0.647103	 0.500000 
Pt42	 0.002127	 0.755356	 0.500000 
Pt43	 0.493754	 0.028834	 0.000000 
Pt44	 0.516630	 0.114211	 0.000000 
Pt45	 0.547880	 0.060084	 0.500000 
Pt46	 0.462504	 0.082961	 0.500000 
Pt47	 0.431254	 0.137087	 0.000000 
Pt48	 0.454130	 0.222464	 0.000000 
Pt49	 0.485380	 0.168337	 0.500000 
Pt50	 0.400004	 0.191214	 0.500000 
Pt51	 0.368754	 0.245340	 0.000000 
Pt52	 0.391630	 0.330717	 0.000000 
Pt53	 0.422880	 0.276590	 0.500000 
Pt54	 0.337504	 0.299467	 0.500000 
Pt55	 0.306254	 0.353594	 0.000000 
Pt56	 0.329130	 0.438970	 0.000000 
Pt57	 0.360380	 0.384844	 0.500000 
Pt58	 0.275004	 0.407720	 0.500000 
Pt59	 0.243754	 0.461847	 0.000000 
Pt60	 0.266630	 0.547223	 0.000000 
Pt61	 0.297880	 0.493097	 0.500000 
Pt62	 0.212504	 0.515973	 0.500000 
Pt63	 0.181254	 0.570100	 0.000000 
Pt64	 0.204130	 0.655476	 0.000000 
Pt65	 0.235380	 0.601350	 0.500000 
Pt66	 0.150004	 0.624226	 0.500000 
Pt67	 0.118754	 0.678353	 0.000000 
Pt68	 0.141630	 0.763730	 0.000000 
Pt69	 0.172880	 0.709603	 0.500000 
Pt70	 0.087504	 0.732480	 0.500000 
Pt71	 0.056254	 0.786606	 0.000000 
Pt72	 0.579130	 0.005957	 0.000000 
Pt73	 0.110380	 0.817856	 0.500000 
Pt74	 0.602007	 0.091334	 0.000000 
Pt75	 0.624884	 0.176711	 0.000000 
Pt76	 0.656134	 0.122584	 0.500000 
Pt77	 0.570757	 0.145461	 0.500000 
Pt78	 0.539507	 0.199587	 0.000000 
Pt79	 0.562384	 0.284964	 0.000000 
Pt80	 0.593634	 0.230837	 0.500000 
Pt81	 0.508257	 0.253714	 0.500000 
Pt82	 0.477007	 0.307840	 0.000000 
Pt83	 0.499884	 0.393217	 0.000000 
Pt84	 0.531134	 0.339090	 0.500000 
Pt85	 0.445757	 0.361967	 0.500000 
Pt86	 0.414507	 0.416094	 0.000000 
Pt87	 0.437384	 0.501470	 0.000000 
Pt88	 0.468634	 0.447344	 0.500000 
Pt89	 0.383257	 0.470220	 0.500000 
Pt90	 0.352007	 0.524347	 0.000000 
Pt91	 0.374884	 0.609723	 0.000000 
Pt92	 0.406134	 0.555597	 0.500000 
Pt93	 0.320757	 0.578473	 0.500000 
Pt94	 0.289507	 0.632600	 0.000000 
Pt95	 0.312384	 0.717976	 0.000000 
Pt96	 0.343634	 0.663850	 0.500000 
Pt97	 0.258257	 0.686726	 0.500000 
Pt98	 0.227007	 0.740853	 0.000000 
Pt99	 0.249884	 0.826230	 0.000000 
Pt100	 0.281134	 0.772103	 0.500000 
Pt101	 0.195757	 0.794980	 0.500000 
Pt102	 0.164507	 0.849106	 0.000000 
Pt103	 0.687384	 0.068457	 0.000000 
Pt104	 0.218634	 0.880356	 0.500000 
Pt105	 0.633257	 0.037207	 0.500000 
Pt106	 0.710260	 0.153834	 0.000000 
Pt107	 0.733137	 0.239211	 0.000000 
Pt108	 0.764387	 0.185084	 0.500000 
Pt109	 0.679010	 0.207961	 0.500000 
Pt110	 0.647760	 0.262087	 0.000000 
Pt111	 0.670637	 0.347464	 0.000000 
Pt112	 0.701887	 0.293337	 0.500000 
Pt113	 0.616510	 0.316214	 0.500000 
Pt114	 0.585260	 0.370340	 0.000000 
Pt115	 0.608137	 0.455717	 0.000000 
Pt116	 0.639387	 0.401590	 0.500000 
Pt117	 0.554010	 0.424467	 0.500000 
Pt118	 0.522760	 0.478594	 0.000000 
Pt119	 0.545637	 0.563970	 0.000000 
Pt120	 0.576887	 0.509844	 0.500000 
Pt121	 0.491510	 0.532720	 0.500000 
Pt122	 0.460260	 0.586847	 0.000000 
Pt123	 0.483137	 0.672223	 0.000000 
Pt124	 0.514387	 0.618097	 0.500000 
Pt125	 0.429010	 0.640973	 0.500000 
Pt126	 0.397760	 0.695100	 0.000000 
Pt127	 0.420637	 0.780476	 0.000000 
Pt128	 0.451887	 0.726350	 0.500000 
Pt129	 0.366510	 0.749226	 0.500000 
Pt130	 0.335260	 0.803353	 0.000000 
Pt131	 0.358137	 0.888730	 0.000000 
Pt132	 0.389387	 0.834603	 0.500000 
Pt133	 0.304010	 0.857480	 0.500000 
Pt134	 0.272760	 0.911606	 0.000000 
Pt135	 0.795637	 0.130957	 0.000000 
Pt136	 0.326887	 0.942856	 0.500000 
Pt137	 0.741510	 0.099707	 0.500000 
Pt138	 0.818513	 0.216334	 0.000000 
Pt139	 0.841390	 0.301711	 0.000000 
Pt140	 0.872640	 0.247584	 0.500000 
Pt141	 0.787263	 0.270461	 0.500000 
Pt142	 0.756013	 0.324587	 0.000000 
Pt143	 0.778890	 0.409964	 0.000000 
Pt144	 0.810140	 0.355837	 0.500000 
Pt145	 0.724763	 0.378714	 0.500000 
Pt146	 0.693513	 0.432840	 0.000000 
Pt147	 0.716390	 0.518217	 0.000000 
Pt148	 0.747640	 0.464090	 0.500000 
Pt149	 0.662263	 0.486967	 0.500000 
Pt150	 0.631013	 0.541094	 0.000000 
Pt151	 0.653890	 0.626470	 0.000000 
Pt152	 0.685140	 0.572344	 0.500000 
Pt153	 0.599763	 0.595220	 0.500000 
Pt154	 0.568513	 0.649347	 0.000000 
Pt155	 0.591390	 0.734723	 0.000000 
Pt156	 0.622640	 0.680597	 0.500000 
Pt157	 0.537263	 0.703473	 0.500000 
Pt158	 0.506013	 0.757600	 0.000000 
Pt159	 0.528890	 0.842976	 0.000000 
Pt160	 0.560140	 0.788850	 0.500000 
Pt161	 0.474763	 0.811726	 0.500000 
Pt162	 0.443513	 0.865853	 0.000000 
Pt163	 0.466390	 0.951230	 0.000000 
Pt164	 0.497640	 0.897103	 0.500000 
Pt165	 0.412263	 0.919980	 0.500000 
Pt166	 0.381013	 0.974106	 0.000000 
Pt167	 0.903890	 0.193457	 0.000000 
Pt168	 0.849763	 0.162207	 0.500000 
Pt169	 0.926767	 0.278834	 0.000000 
Pt170	 0.949643	 0.364211	 0.000000 
Pt171	 0.980893	 0.310084	 0.500000 
Pt172	 0.895517	 0.332961	 0.500000 
Pt173	 0.864267	 0.387087	 0.000000 
Pt174	 0.887143	 0.472464	 0.000000 
Pt175	 0.918393	 0.418337	 0.500000 
Pt176	 0.833017	 0.441214	 0.500000 
Pt177	 0.801767	 0.495340	 0.000000 
Pt178	 0.824643	 0.580717	 0.000000 
Pt179	 0.855893	 0.526590	 0.500000 
Pt180	 0.770517	 0.549467	 0.500000 
Pt181	 0.739267	 0.603594	 0.000000 
Pt182	 0.762143	 0.688970	 0.000000 
Pt183	 0.793393	 0.634844	 0.500000 
Pt184	 0.708017	 0.657720	 0.500000 
Pt185	 0.676767	 0.711847	 0.000000 
Pt186	 0.699643	 0.797223	 0.000000 
Pt187	 0.730893	 0.743097	 0.500000 
Pt188	 0.645517	 0.765973	 0.500000 
Pt189	 0.614267	 0.820100	 0.000000 
Pt190	 0.637143	 0.905476	 0.000000 
Pt191	 0.668393	 0.851350	 0.500000 
Pt192	 0.583017	 0.874226	 0.500000 
Pt193	 0.551767	 0.928353	 0.000000 
Pt194	 0.605893	 0.959603	 0.500000 
Pt195	 0.520517	 0.982480	 0.500000 
Pt196	 0.958017	 0.224707	 0.500000 
Pt197	 0.972520	 0.449587	 0.000000 
Pt198	 0.995396	 0.534964	 0.000000 
Pt199	 0.941270	 0.503714	 0.500000 
Pt200	 0.910020	 0.557840	 0.000000 
Pt201	 0.932896	 0.643217	 0.000000 
Pt202	 0.964146	 0.589090	 0.500000 
Pt203	 0.878770	 0.611967	 0.500000 
Pt204	 0.847520	 0.666094	 0.000000 
Pt205	 0.870396	 0.751470	 0.000000 
Pt206	 0.901646	 0.697344	 0.500000 
Pt207	 0.816270	 0.720220	 0.500000 
Pt208	 0.785020	 0.774347	 0.000000 
Pt209	 0.807896	 0.859723	 0.000000 
Pt210	 0.839146	 0.805597	 0.500000 
Pt211	 0.753770	 0.828473	 0.500000 
Pt212	 0.722520	 0.882600	 0.000000 
Pt213	 0.745396	 0.967976	 0.000000 
Pt214	 0.776646	 0.913850	 0.500000 
Pt215	 0.691270	 0.936726	 0.500000 
Pt216	 0.660020	 0.990853	 0.000000 
#                 ---end-of-data-block---
