data_Pt structure along [001] nx 8 ny 8 nz 1
_cell_length_a               31.360000
_cell_length_b               31.360000
_cell_length_c               3.920000
_cell_angle_alpha          90.000000
_cell_angle_beta           90.000000
_cell_angle_gamma          90.000000
_symmetry_cell_setting          Triclinic
_symmetry_space_group_name_H-M 'P 1' 
loop_
_atom_site_label
_atom_site_fract_x
_atom_site_fract_y
_atom_site_fract_z
Pt1	 0.840608	 0.007140	 0.000000 
Pt2	 0.796413	 0.083686	 0.000000 
Pt3	 0.856784	 0.067510	 0.500000 
Pt4	 0.780237	 0.023316	 0.500000 
Pt5	 0.719867	 0.039492	 0.000000 
Pt6	 0.675673	 0.116038	 0.000000 
Pt7	 0.736043	 0.099862	 0.500000 
Pt8	 0.659497	 0.055668	 0.500000 
Pt9	 0.599126	 0.071844	 0.000000 
Pt10	 0.554932	 0.148391	 0.000000 
Pt11	 0.615302	 0.132215	 0.500000 
Pt12	 0.538756	 0.088020	 0.500000 
Pt13	 0.478385	 0.104197	 0.000000 
Pt14	 0.434191	 0.180743	 0.000000 
Pt15	 0.494562	 0.164567	 0.500000 
Pt16	 0.418015	 0.120373	 0.500000 
Pt17	 0.357645	 0.136549	 0.000000 
Pt18	 0.313451	 0.213096	 0.000000 
Pt19	 0.373821	 0.196919	 0.500000 
Pt20	 0.297274	 0.152725	 0.500000 
Pt21	 0.236904	 0.168901	 0.000000 
Pt22	 0.192710	 0.245448	 0.000000 
Pt23	 0.253080	 0.229272	 0.500000 
Pt24	 0.176534	 0.185078	 0.500000 
Pt25	 0.116163	 0.201254	 0.000000 
Pt26	 0.071969	 0.277800	 0.000000 
Pt27	 0.132339	 0.261624	 0.500000 
Pt28	 0.055793	 0.217430	 0.500000 
Pt29	 0.011599	 0.293977	 0.500000 
Pt30	 0.872960	 0.127880	 0.000000 
Pt31	 0.828766	 0.204427	 0.000000 
Pt32	 0.889136	 0.188251	 0.500000 
Pt33	 0.812590	 0.144056	 0.500000 
Pt34	 0.752219	 0.160233	 0.000000 
Pt35	 0.708025	 0.236779	 0.000000 
Pt36	 0.768395	 0.220603	 0.500000 
Pt37	 0.691849	 0.176409	 0.500000 
Pt38	 0.631479	 0.192585	 0.000000 
Pt39	 0.587284	 0.269132	 0.000000 
Pt40	 0.647655	 0.252955	 0.500000 
Pt41	 0.571108	 0.208761	 0.500000 
Pt42	 0.510738	 0.224937	 0.000000 
Pt43	 0.466544	 0.301484	 0.000000 
Pt44	 0.526914	 0.285308	 0.500000 
Pt45	 0.450367	 0.241114	 0.500000 
Pt46	 0.389997	 0.257290	 0.000000 
Pt47	 0.345803	 0.333836	 0.000000 
Pt48	 0.406173	 0.317660	 0.500000 
Pt49	 0.329627	 0.273466	 0.500000 
Pt50	 0.269256	 0.289642	 0.000000 
Pt51	 0.225062	 0.366189	 0.000000 
Pt52	 0.285433	 0.350013	 0.500000 
Pt53	 0.208886	 0.305818	 0.500000 
Pt54	 0.148516	 0.321995	 0.000000 
Pt55	 0.104321	 0.398541	 0.000000 
Pt56	 0.164692	 0.382365	 0.500000 
Pt57	 0.088145	 0.338171	 0.500000 
Pt58	 0.027775	 0.354347	 0.000000 
Pt59	 0.043951	 0.414717	 0.500000 
Pt60	 0.905312	 0.248621	 0.000000 
Pt61	 0.861118	 0.325168	 0.000000 
Pt62	 0.921489	 0.308991	 0.500000 
Pt63	 0.844942	 0.264797	 0.500000 
Pt64	 0.784572	 0.280973	 0.000000 
Pt65	 0.740377	 0.357520	 0.000000 
Pt66	 0.800748	 0.341344	 0.500000 
Pt67	 0.724201	 0.297150	 0.500000 
Pt68	 0.663831	 0.313326	 0.000000 
Pt69	 0.619637	 0.389872	 0.000000 
Pt70	 0.680007	 0.373696	 0.500000 
Pt71	 0.603461	 0.329502	 0.500000 
Pt72	 0.543090	 0.345678	 0.000000 
Pt73	 0.498896	 0.422225	 0.000000 
Pt74	 0.559266	 0.406048	 0.500000 
Pt75	 0.482720	 0.361854	 0.500000 
Pt76	 0.422349	 0.378030	 0.000000 
Pt77	 0.378155	 0.454577	 0.000000 
Pt78	 0.438526	 0.438401	 0.500000 
Pt79	 0.361979	 0.394207	 0.500000 
Pt80	 0.301609	 0.410383	 0.000000 
Pt81	 0.257415	 0.486929	 0.000000 
Pt82	 0.317785	 0.470753	 0.500000 
Pt83	 0.241238	 0.426559	 0.500000 
Pt84	 0.180868	 0.442735	 0.000000 
Pt85	 0.136674	 0.519282	 0.000000 
Pt86	 0.197044	 0.503106	 0.500000 
Pt87	 0.120498	 0.458911	 0.500000 
Pt88	 0.060127	 0.475088	 0.000000 
Pt89	 0.015933	 0.551634	 0.000000 
Pt90	 0.076303	 0.535458	 0.500000 
Pt91	 0.937665	 0.369362	 0.000000 
Pt92	 0.893471	 0.445908	 0.000000 
Pt93	 0.953841	 0.429732	 0.500000 
Pt94	 0.877294	 0.385538	 0.500000 
Pt95	 0.816924	 0.401714	 0.000000 
Pt96	 0.772730	 0.478261	 0.000000 
Pt97	 0.833100	 0.462084	 0.500000 
Pt98	 0.756554	 0.417890	 0.500000 
Pt99	 0.696183	 0.434066	 0.000000 
Pt100	 0.651989	 0.510613	 0.000000 
Pt101	 0.712360	 0.494437	 0.500000 
Pt102	 0.635813	 0.450243	 0.500000 
Pt103	 0.575443	 0.466419	 0.000000 
Pt104	 0.531248	 0.542965	 0.000000 
Pt105	 0.591619	 0.526789	 0.500000 
Pt106	 0.515072	 0.482595	 0.500000 
Pt107	 0.454702	 0.498771	 0.000000 
Pt108	 0.410508	 0.575318	 0.000000 
Pt109	 0.470878	 0.559142	 0.500000 
Pt110	 0.394331	 0.514947	 0.500000 
Pt111	 0.333961	 0.531124	 0.000000 
Pt112	 0.289767	 0.607670	 0.000000 
Pt113	 0.350137	 0.591494	 0.500000 
Pt114	 0.273591	 0.547300	 0.500000 
Pt115	 0.213220	 0.563476	 0.000000 
Pt116	 0.169026	 0.640023	 0.000000 
Pt117	 0.229397	 0.623846	 0.500000 
Pt118	 0.152850	 0.579652	 0.500000 
Pt119	 0.092480	 0.595828	 0.000000 
Pt120	 0.048285	 0.672375	 0.000000 
Pt121	 0.108656	 0.656199	 0.500000 
Pt122	 0.032109	 0.612005	 0.500000 
Pt123	 0.970017	 0.490102	 0.000000 
Pt124	 0.925823	 0.566649	 0.000000 
Pt125	 0.986193	 0.550473	 0.500000 
Pt126	 0.909647	 0.506279	 0.500000 
Pt127	 0.849276	 0.522455	 0.000000 
Pt128	 0.805082	 0.599001	 0.000000 
Pt129	 0.865453	 0.582825	 0.500000 
Pt130	 0.788906	 0.538631	 0.500000 
Pt131	 0.728536	 0.554807	 0.000000 
Pt132	 0.684342	 0.631354	 0.000000 
Pt133	 0.744712	 0.615178	 0.500000 
Pt134	 0.668165	 0.570983	 0.500000 
Pt135	 0.607795	 0.587160	 0.000000 
Pt136	 0.563601	 0.663706	 0.000000 
Pt137	 0.623971	 0.647530	 0.500000 
Pt138	 0.547425	 0.603336	 0.500000 
Pt139	 0.487054	 0.619512	 0.000000 
Pt140	 0.442860	 0.696059	 0.000000 
Pt141	 0.503230	 0.679882	 0.500000 
Pt142	 0.426684	 0.635688	 0.500000 
Pt143	 0.366314	 0.651864	 0.000000 
Pt144	 0.322119	 0.728411	 0.000000 
Pt145	 0.382490	 0.712235	 0.500000 
Pt146	 0.305943	 0.668041	 0.500000 
Pt147	 0.245573	 0.684217	 0.000000 
Pt148	 0.201379	 0.760763	 0.000000 
Pt149	 0.261749	 0.744587	 0.500000 
Pt150	 0.185202	 0.700393	 0.500000 
Pt151	 0.124832	 0.716569	 0.000000 
Pt152	 0.080638	 0.793116	 0.000000 
Pt153	 0.141008	 0.776939	 0.500000 
Pt154	 0.064462	 0.732745	 0.500000 
Pt155	 0.958175	 0.687390	 0.000000 
Pt156	 0.941999	 0.627019	 0.500000 
Pt157	 0.881629	 0.643196	 0.000000 
Pt158	 0.837435	 0.719742	 0.000000 
Pt159	 0.897805	 0.703566	 0.500000 
Pt160	 0.821258	 0.659372	 0.500000 
Pt161	 0.760888	 0.675548	 0.000000 
Pt162	 0.716694	 0.752094	 0.000000 
Pt163	 0.777064	 0.735918	 0.500000 
Pt164	 0.700518	 0.691724	 0.500000 
Pt165	 0.640147	 0.707900	 0.000000 
Pt166	 0.595953	 0.784447	 0.000000 
Pt167	 0.656324	 0.768271	 0.500000 
Pt168	 0.579777	 0.724076	 0.500000 
Pt169	 0.519407	 0.740253	 0.000000 
Pt170	 0.475212	 0.816799	 0.000000 
Pt171	 0.535583	 0.800623	 0.500000 
Pt172	 0.459036	 0.756429	 0.500000 
Pt173	 0.398666	 0.772605	 0.000000 
Pt174	 0.354472	 0.849152	 0.000000 
Pt175	 0.414842	 0.832975	 0.500000 
Pt176	 0.338296	 0.788781	 0.500000 
Pt177	 0.277925	 0.804957	 0.000000 
Pt178	 0.233731	 0.881504	 0.000000 
Pt179	 0.294101	 0.865328	 0.500000 
Pt180	 0.217555	 0.821134	 0.500000 
Pt181	 0.157184	 0.837310	 0.000000 
Pt182	 0.112990	 0.913856	 0.000000 
Pt183	 0.173361	 0.897680	 0.500000 
Pt184	 0.096814	 0.853486	 0.500000 
Pt185	 0.990528	 0.808130	 0.000000 
Pt186	 0.974352	 0.747760	 0.500000 
Pt187	 0.913981	 0.763936	 0.000000 
Pt188	 0.869787	 0.840483	 0.000000 
Pt189	 0.930157	 0.824307	 0.500000 
Pt190	 0.853611	 0.780112	 0.500000 
Pt191	 0.793240	 0.796289	 0.000000 
Pt192	 0.749046	 0.872835	 0.000000 
Pt193	 0.809417	 0.856659	 0.500000 
Pt194	 0.732870	 0.812465	 0.500000 
Pt195	 0.672500	 0.828641	 0.000000 
Pt196	 0.628306	 0.905188	 0.000000 
Pt197	 0.688676	 0.889011	 0.500000 
Pt198	 0.612129	 0.844817	 0.500000 
Pt199	 0.551759	 0.860993	 0.000000 
Pt200	 0.507565	 0.937540	 0.000000 
Pt201	 0.567935	 0.921364	 0.500000 
Pt202	 0.491389	 0.877170	 0.500000 
Pt203	 0.431018	 0.893346	 0.000000 
Pt204	 0.386824	 0.969892	 0.000000 
Pt205	 0.447194	 0.953716	 0.500000 
Pt206	 0.370648	 0.909522	 0.500000 
Pt207	 0.310278	 0.925698	 0.000000 
Pt208	 0.326454	 0.986069	 0.500000 
Pt209	 0.249907	 0.941874	 0.500000 
Pt210	 0.189537	 0.958051	 0.000000 
Pt211	 0.129166	 0.974227	 0.500000 
Pt212	 0.946334	 0.884677	 0.000000 
Pt213	 0.885963	 0.900853	 0.500000 
Pt214	 0.825593	 0.917029	 0.000000 
Pt215	 0.522580	 0.027650	 0.000000 
Pt216	 0.582950	 0.011474	 0.500000 
Pt217	 0.765222	 0.933206	 0.500000 
Pt218	 0.704852	 0.949382	 0.000000 
Pt219	 0.401839	 0.060002	 0.000000 
Pt220	 0.462209	 0.043826	 0.500000 
Pt221	 0.644482	 0.965558	 0.500000 
Pt222	 0.584111	 0.981734	 0.000000 
Pt223	 0.281098	 0.092355	 0.000000 
Pt224	 0.341469	 0.076179	 0.500000 
Pt225	 0.523741	 0.997910	 0.500000 
Pt226	 0.160357	 0.124707	 0.000000 
Pt227	 0.220728	 0.108531	 0.500000 
Pt228	 0.039617	 0.157060	 0.000000 
Pt229	 0.099987	 0.140883	 0.500000 
#                 ---end-of-data-block---
