data_Pt structure along [001] nx 8 ny 8 nz 1
_cell_length_a               31.360000
_cell_length_b               31.360000
_cell_length_c               3.920000
_cell_angle_alpha          90.000000
_cell_angle_beta           90.000000
_cell_angle_gamma          90.000000
_symmetry_cell_setting          Triclinic
_symmetry_space_group_name_H-M 'P 1' 
loop_
_atom_site_label
_atom_site_fract_x
_atom_site_fract_y
_atom_site_fract_z
Pt1	 0.784285	 0.048125	 0.000000 
Pt2	 0.844656	 0.031949	 0.500000 
Pt3	 0.707739	 0.003931	 0.000000 
Pt4	 0.663545	 0.080478	 0.000000 
Pt5	 0.723915	 0.064302	 0.500000 
Pt6	 0.647368	 0.020107	 0.500000 
Pt7	 0.586998	 0.036284	 0.000000 
Pt8	 0.542804	 0.112830	 0.000000 
Pt9	 0.603174	 0.096654	 0.500000 
Pt10	 0.526628	 0.052460	 0.500000 
Pt11	 0.466257	 0.068636	 0.000000 
Pt12	 0.422063	 0.145182	 0.000000 
Pt13	 0.482434	 0.129006	 0.500000 
Pt14	 0.405887	 0.084812	 0.500000 
Pt15	 0.345517	 0.100988	 0.000000 
Pt16	 0.301322	 0.177535	 0.000000 
Pt17	 0.361693	 0.161359	 0.500000 
Pt18	 0.285146	 0.117165	 0.500000 
Pt19	 0.224776	 0.133341	 0.000000 
Pt20	 0.180582	 0.209887	 0.000000 
Pt21	 0.240952	 0.193711	 0.500000 
Pt22	 0.164406	 0.149517	 0.500000 
Pt23	 0.104035	 0.165693	 0.000000 
Pt24	 0.059841	 0.242240	 0.000000 
Pt25	 0.120211	 0.226063	 0.500000 
Pt26	 0.043665	 0.181869	 0.500000 
Pt27	 0.860832	 0.092320	 0.000000 
Pt28	 0.816638	 0.168866	 0.000000 
Pt29	 0.877008	 0.152690	 0.500000 
Pt30	 0.800462	 0.108496	 0.500000 
Pt31	 0.740091	 0.124672	 0.000000 
Pt32	 0.695897	 0.201218	 0.000000 
Pt33	 0.756267	 0.185042	 0.500000 
Pt34	 0.679721	 0.140848	 0.500000 
Pt35	 0.619350	 0.157024	 0.000000 
Pt36	 0.575156	 0.233571	 0.000000 
Pt37	 0.635527	 0.217395	 0.500000 
Pt38	 0.558980	 0.173200	 0.500000 
Pt39	 0.498610	 0.189377	 0.000000 
Pt40	 0.454416	 0.265923	 0.000000 
Pt41	 0.514786	 0.249747	 0.500000 
Pt42	 0.438239	 0.205553	 0.500000 
Pt43	 0.377869	 0.221729	 0.000000 
Pt44	 0.333675	 0.298276	 0.000000 
Pt45	 0.394045	 0.282099	 0.500000 
Pt46	 0.317499	 0.237905	 0.500000 
Pt47	 0.257128	 0.254081	 0.000000 
Pt48	 0.212934	 0.330628	 0.000000 
Pt49	 0.273304	 0.314452	 0.500000 
Pt50	 0.196758	 0.270258	 0.500000 
Pt51	 0.136388	 0.286434	 0.000000 
Pt52	 0.092193	 0.362980	 0.000000 
Pt53	 0.152564	 0.346804	 0.500000 
Pt54	 0.076017	 0.302610	 0.500000 
Pt55	 0.015647	 0.318786	 0.000000 
Pt56	 0.031823	 0.379157	 0.500000 
Pt57	 0.893184	 0.213060	 0.000000 
Pt58	 0.848990	 0.289607	 0.000000 
Pt59	 0.909360	 0.273431	 0.500000 
Pt60	 0.832814	 0.229236	 0.500000 
Pt61	 0.772444	 0.245413	 0.000000 
Pt62	 0.728249	 0.321959	 0.000000 
Pt63	 0.788620	 0.305783	 0.500000 
Pt64	 0.712073	 0.261589	 0.500000 
Pt65	 0.651703	 0.277765	 0.000000 
Pt66	 0.607509	 0.354312	 0.000000 
Pt67	 0.667879	 0.338135	 0.500000 
Pt68	 0.591332	 0.293941	 0.500000 
Pt69	 0.530962	 0.310117	 0.000000 
Pt70	 0.486768	 0.386664	 0.000000 
Pt71	 0.547138	 0.370488	 0.500000 
Pt72	 0.470592	 0.326294	 0.500000 
Pt73	 0.410221	 0.342470	 0.000000 
Pt74	 0.366027	 0.419016	 0.000000 
Pt75	 0.426398	 0.402840	 0.500000 
Pt76	 0.349851	 0.358646	 0.500000 
Pt77	 0.289481	 0.374822	 0.000000 
Pt78	 0.245286	 0.451369	 0.000000 
Pt79	 0.305657	 0.435193	 0.500000 
Pt80	 0.229110	 0.390998	 0.500000 
Pt81	 0.168740	 0.407175	 0.000000 
Pt82	 0.124546	 0.483721	 0.000000 
Pt83	 0.184916	 0.467545	 0.500000 
Pt84	 0.108370	 0.423351	 0.500000 
Pt85	 0.047999	 0.439527	 0.000000 
Pt86	 0.003805	 0.516073	 0.000000 
Pt87	 0.064175	 0.499897	 0.500000 
Pt88	 0.925537	 0.333801	 0.000000 
Pt89	 0.881342	 0.410348	 0.000000 
Pt90	 0.941713	 0.394171	 0.500000 
Pt91	 0.865166	 0.349977	 0.500000 
Pt92	 0.804796	 0.366153	 0.000000 
Pt93	 0.760602	 0.442700	 0.000000 
Pt94	 0.820972	 0.426524	 0.500000 
Pt95	 0.744426	 0.382330	 0.500000 
Pt96	 0.684055	 0.398506	 0.000000 
Pt97	 0.639861	 0.475052	 0.000000 
Pt98	 0.700231	 0.458876	 0.500000 
Pt99	 0.623685	 0.414682	 0.500000 
Pt100	 0.563314	 0.430858	 0.000000 
Pt101	 0.519120	 0.507405	 0.000000 
Pt102	 0.579491	 0.491228	 0.500000 
Pt103	 0.502944	 0.447034	 0.500000 
Pt104	 0.442574	 0.463211	 0.000000 
Pt105	 0.398380	 0.539757	 0.000000 
Pt106	 0.458750	 0.523581	 0.500000 
Pt107	 0.382203	 0.479387	 0.500000 
Pt108	 0.321833	 0.495563	 0.000000 
Pt109	 0.277639	 0.572109	 0.000000 
Pt110	 0.338009	 0.555933	 0.500000 
Pt111	 0.261463	 0.511739	 0.500000 
Pt112	 0.201092	 0.527915	 0.000000 
Pt113	 0.156898	 0.604462	 0.000000 
Pt114	 0.217268	 0.588286	 0.500000 
Pt115	 0.140722	 0.544091	 0.500000 
Pt116	 0.080352	 0.560268	 0.000000 
Pt117	 0.036157	 0.636814	 0.000000 
Pt118	 0.096528	 0.620638	 0.500000 
Pt119	 0.019981	 0.576444	 0.500000 
Pt120	 0.957889	 0.454542	 0.000000 
Pt121	 0.913695	 0.531088	 0.000000 
Pt122	 0.974065	 0.514912	 0.500000 
Pt123	 0.897519	 0.470718	 0.500000 
Pt124	 0.837148	 0.486894	 0.000000 
Pt125	 0.792954	 0.563441	 0.000000 
Pt126	 0.853325	 0.547264	 0.500000 
Pt127	 0.776778	 0.503070	 0.500000 
Pt128	 0.716408	 0.519246	 0.000000 
Pt129	 0.672213	 0.595793	 0.000000 
Pt130	 0.732584	 0.579617	 0.500000 
Pt131	 0.656037	 0.535423	 0.500000 
Pt132	 0.595667	 0.551599	 0.000000 
Pt133	 0.551473	 0.628145	 0.000000 
Pt134	 0.611843	 0.611969	 0.500000 
Pt135	 0.535296	 0.567775	 0.500000 
Pt136	 0.474926	 0.583951	 0.000000 
Pt137	 0.430732	 0.660498	 0.000000 
Pt138	 0.491102	 0.644322	 0.500000 
Pt139	 0.414556	 0.600127	 0.500000 
Pt140	 0.354185	 0.616304	 0.000000 
Pt141	 0.309991	 0.692850	 0.000000 
Pt142	 0.370362	 0.676674	 0.500000 
Pt143	 0.293815	 0.632480	 0.500000 
Pt144	 0.233445	 0.648656	 0.000000 
Pt145	 0.189250	 0.725203	 0.000000 
Pt146	 0.249621	 0.709026	 0.500000 
Pt147	 0.173074	 0.664832	 0.500000 
Pt148	 0.112704	 0.681008	 0.000000 
Pt149	 0.068510	 0.757555	 0.000000 
Pt150	 0.128880	 0.741379	 0.500000 
Pt151	 0.052334	 0.697185	 0.500000 
Pt152	 0.990241	 0.575282	 0.000000 
Pt153	 0.946047	 0.651829	 0.000000 
Pt154	 0.929871	 0.591459	 0.500000 
Pt155	 0.869501	 0.607635	 0.000000 
Pt156	 0.825307	 0.684181	 0.000000 
Pt157	 0.885677	 0.668005	 0.500000 
Pt158	 0.809130	 0.623811	 0.500000 
Pt159	 0.748760	 0.639987	 0.000000 
Pt160	 0.704566	 0.716534	 0.000000 
Pt161	 0.764936	 0.700358	 0.500000 
Pt162	 0.688390	 0.656163	 0.500000 
Pt163	 0.628019	 0.672340	 0.000000 
Pt164	 0.583825	 0.748886	 0.000000 
Pt165	 0.644195	 0.732710	 0.500000 
Pt166	 0.567649	 0.688516	 0.500000 
Pt167	 0.507279	 0.704692	 0.000000 
Pt168	 0.463084	 0.781239	 0.000000 
Pt169	 0.523455	 0.765062	 0.500000 
Pt170	 0.446908	 0.720868	 0.500000 
Pt171	 0.386538	 0.737044	 0.000000 
Pt172	 0.342344	 0.813591	 0.000000 
Pt173	 0.402714	 0.797415	 0.500000 
Pt174	 0.326167	 0.753221	 0.500000 
Pt175	 0.265797	 0.769397	 0.000000 
Pt176	 0.221603	 0.845943	 0.000000 
Pt177	 0.281973	 0.829767	 0.500000 
Pt178	 0.205427	 0.785573	 0.500000 
Pt179	 0.145056	 0.801749	 0.000000 
Pt180	 0.100862	 0.878296	 0.000000 
Pt181	 0.161233	 0.862119	 0.500000 
Pt182	 0.084686	 0.817925	 0.500000 
Pt183	 0.978400	 0.772570	 0.000000 
Pt184	 0.962223	 0.712199	 0.500000 
Pt185	 0.901853	 0.728376	 0.000000 
Pt186	 0.857659	 0.804922	 0.000000 
Pt187	 0.918029	 0.788746	 0.500000 
Pt188	 0.841483	 0.744552	 0.500000 
Pt189	 0.781112	 0.760728	 0.000000 
Pt190	 0.736918	 0.837274	 0.000000 
Pt191	 0.797289	 0.821098	 0.500000 
Pt192	 0.720742	 0.776904	 0.500000 
Pt193	 0.660372	 0.793080	 0.000000 
Pt194	 0.616177	 0.869627	 0.000000 
Pt195	 0.676548	 0.853451	 0.500000 
Pt196	 0.600001	 0.809257	 0.500000 
Pt197	 0.539631	 0.825433	 0.000000 
Pt198	 0.495437	 0.901979	 0.000000 
Pt199	 0.555807	 0.885803	 0.500000 
Pt200	 0.479261	 0.841609	 0.500000 
Pt201	 0.418890	 0.857785	 0.000000 
Pt202	 0.374696	 0.934332	 0.000000 
Pt203	 0.435066	 0.918155	 0.500000 
Pt204	 0.358520	 0.873961	 0.500000 
Pt205	 0.298149	 0.890137	 0.000000 
Pt206	 0.253955	 0.966684	 0.000000 
Pt207	 0.314326	 0.950508	 0.500000 
Pt208	 0.237779	 0.906314	 0.500000 
Pt209	 0.177409	 0.922490	 0.000000 
Pt210	 0.133215	 0.999036	 0.000000 
Pt211	 0.193585	 0.982860	 0.500000 
Pt212	 0.117038	 0.938666	 0.500000 
Pt213	 0.994576	 0.832940	 0.500000 
Pt214	 0.934205	 0.849116	 0.000000 
Pt215	 0.873835	 0.865292	 0.500000 
Pt216	 0.813465	 0.881469	 0.000000 
Pt217	 0.753094	 0.897645	 0.500000 
Pt218	 0.692724	 0.913821	 0.000000 
Pt219	 0.389711	 0.024442	 0.000000 
Pt220	 0.450081	 0.008266	 0.500000 
Pt221	 0.632354	 0.929997	 0.500000 
Pt222	 0.571983	 0.946173	 0.000000 
Pt223	 0.268970	 0.056794	 0.000000 
Pt224	 0.329340	 0.040618	 0.500000 
Pt225	 0.511613	 0.962350	 0.500000 
Pt226	 0.451243	 0.978526	 0.000000 
Pt227	 0.148229	 0.089147	 0.000000 
Pt228	 0.208600	 0.072970	 0.500000 
Pt229	 0.390872	 0.994702	 0.500000 
Pt230	 0.027489	 0.121499	 0.000000 
Pt231	 0.087859	 0.105323	 0.500000 
#                 ---end-of-data-block---
