data_Pt structure along [001] nx 8 ny 8 nz 1
_cell_length_a               31.360000
_cell_length_b               31.360000
_cell_length_c               3.920000
_cell_angle_alpha          90.000000
_cell_angle_beta           90.000000
_cell_angle_gamma          90.000000
_symmetry_cell_setting          Triclinic
_symmetry_space_group_name_H-M 'P 1' 
loop_
_atom_site_label
_atom_site_fract_x
_atom_site_fract_y
_atom_site_fract_z
Pt1	 0.829472	 0.060652	 0.000000 
Pt2	 0.889842	 0.044475	 0.500000 
Pt3	 0.813296	 0.000281	 0.500000 
Pt4	 0.752925	 0.016457	 0.000000 
Pt5	 0.708731	 0.093004	 0.000000 
Pt6	 0.769101	 0.076828	 0.500000 
Pt7	 0.692555	 0.032634	 0.500000 
Pt8	 0.632185	 0.048810	 0.000000 
Pt9	 0.587990	 0.125356	 0.000000 
Pt10	 0.648361	 0.109180	 0.500000 
Pt11	 0.571814	 0.064986	 0.500000 
Pt12	 0.511444	 0.081162	 0.000000 
Pt13	 0.467250	 0.157709	 0.000000 
Pt14	 0.527620	 0.141533	 0.500000 
Pt15	 0.451073	 0.097338	 0.500000 
Pt16	 0.390703	 0.113515	 0.000000 
Pt17	 0.346509	 0.190061	 0.000000 
Pt18	 0.406879	 0.173885	 0.500000 
Pt19	 0.330333	 0.129691	 0.500000 
Pt20	 0.269962	 0.145867	 0.000000 
Pt21	 0.225768	 0.222413	 0.000000 
Pt22	 0.286139	 0.206237	 0.500000 
Pt23	 0.209592	 0.162043	 0.500000 
Pt24	 0.149222	 0.178219	 0.000000 
Pt25	 0.105027	 0.254766	 0.000000 
Pt26	 0.165398	 0.238590	 0.500000 
Pt27	 0.088851	 0.194396	 0.500000 
Pt28	 0.028481	 0.210572	 0.000000 
Pt29	 0.044657	 0.270942	 0.500000 
Pt30	 0.906018	 0.104846	 0.000000 
Pt31	 0.861824	 0.181392	 0.000000 
Pt32	 0.922195	 0.165216	 0.500000 
Pt33	 0.845648	 0.121022	 0.500000 
Pt34	 0.785278	 0.137198	 0.000000 
Pt35	 0.741084	 0.213745	 0.000000 
Pt36	 0.801454	 0.197569	 0.500000 
Pt37	 0.724907	 0.153374	 0.500000 
Pt38	 0.664537	 0.169551	 0.000000 
Pt39	 0.620343	 0.246097	 0.000000 
Pt40	 0.680713	 0.229921	 0.500000 
Pt41	 0.604167	 0.185727	 0.500000 
Pt42	 0.543796	 0.201903	 0.000000 
Pt43	 0.499602	 0.278449	 0.000000 
Pt44	 0.559972	 0.262273	 0.500000 
Pt45	 0.483426	 0.218079	 0.500000 
Pt46	 0.423055	 0.234255	 0.000000 
Pt47	 0.378861	 0.310802	 0.000000 
Pt48	 0.439232	 0.294626	 0.500000 
Pt49	 0.362685	 0.250431	 0.500000 
Pt50	 0.302315	 0.266608	 0.000000 
Pt51	 0.258121	 0.343154	 0.000000 
Pt52	 0.318491	 0.326978	 0.500000 
Pt53	 0.241944	 0.282784	 0.500000 
Pt54	 0.181574	 0.298960	 0.000000 
Pt55	 0.137380	 0.375507	 0.000000 
Pt56	 0.197750	 0.359330	 0.500000 
Pt57	 0.121204	 0.315136	 0.500000 
Pt58	 0.060833	 0.331312	 0.000000 
Pt59	 0.016639	 0.407859	 0.000000 
Pt60	 0.077009	 0.391683	 0.500000 
Pt61	 0.000463	 0.347489	 0.500000 
Pt62	 0.938371	 0.225586	 0.000000 
Pt63	 0.894177	 0.302133	 0.000000 
Pt64	 0.954547	 0.285957	 0.500000 
Pt65	 0.878000	 0.241763	 0.500000 
Pt66	 0.817630	 0.257939	 0.000000 
Pt67	 0.773436	 0.334485	 0.000000 
Pt68	 0.833806	 0.318309	 0.500000 
Pt69	 0.757260	 0.274115	 0.500000 
Pt70	 0.696889	 0.290291	 0.000000 
Pt71	 0.652695	 0.366838	 0.000000 
Pt72	 0.713066	 0.350662	 0.500000 
Pt73	 0.636519	 0.306467	 0.500000 
Pt74	 0.576149	 0.322644	 0.000000 
Pt75	 0.531954	 0.399190	 0.000000 
Pt76	 0.592325	 0.383014	 0.500000 
Pt77	 0.515778	 0.338820	 0.500000 
Pt78	 0.455408	 0.354996	 0.000000 
Pt79	 0.411214	 0.431543	 0.000000 
Pt80	 0.471584	 0.415366	 0.500000 
Pt81	 0.395038	 0.371172	 0.500000 
Pt82	 0.334667	 0.387348	 0.000000 
Pt83	 0.290473	 0.463895	 0.000000 
Pt84	 0.350843	 0.447719	 0.500000 
Pt85	 0.274297	 0.403525	 0.500000 
Pt86	 0.213926	 0.419701	 0.000000 
Pt87	 0.169732	 0.496247	 0.000000 
Pt88	 0.230103	 0.480071	 0.500000 
Pt89	 0.153556	 0.435877	 0.500000 
Pt90	 0.093186	 0.452053	 0.000000 
Pt91	 0.048992	 0.528600	 0.000000 
Pt92	 0.109362	 0.512424	 0.500000 
Pt93	 0.032815	 0.468229	 0.500000 
Pt94	 0.970723	 0.346327	 0.000000 
Pt95	 0.926529	 0.422874	 0.000000 
Pt96	 0.986899	 0.406698	 0.500000 
Pt97	 0.910353	 0.362503	 0.500000 
Pt98	 0.849982	 0.378680	 0.000000 
Pt99	 0.805788	 0.455226	 0.000000 
Pt100	 0.866159	 0.439050	 0.500000 
Pt101	 0.789612	 0.394856	 0.500000 
Pt102	 0.729242	 0.411032	 0.000000 
Pt103	 0.685048	 0.487579	 0.000000 
Pt104	 0.745418	 0.471402	 0.500000 
Pt105	 0.668871	 0.427208	 0.500000 
Pt106	 0.608501	 0.443384	 0.000000 
Pt107	 0.564307	 0.519931	 0.000000 
Pt108	 0.624677	 0.503755	 0.500000 
Pt109	 0.548131	 0.459561	 0.500000 
Pt110	 0.487760	 0.475737	 0.000000 
Pt111	 0.443566	 0.552283	 0.000000 
Pt112	 0.503936	 0.536107	 0.500000 
Pt113	 0.427390	 0.491913	 0.500000 
Pt114	 0.367020	 0.508089	 0.000000 
Pt115	 0.322825	 0.584636	 0.000000 
Pt116	 0.383196	 0.568459	 0.500000 
Pt117	 0.306649	 0.524265	 0.500000 
Pt118	 0.246279	 0.540442	 0.000000 
Pt119	 0.202085	 0.616988	 0.000000 
Pt120	 0.262455	 0.600812	 0.500000 
Pt121	 0.185908	 0.556618	 0.500000 
Pt122	 0.125538	 0.572794	 0.000000 
Pt123	 0.081344	 0.649340	 0.000000 
Pt124	 0.141714	 0.633164	 0.500000 
Pt125	 0.065168	 0.588970	 0.500000 
Pt126	 0.958881	 0.543615	 0.000000 
Pt127	 0.942705	 0.483244	 0.500000 
Pt128	 0.882335	 0.499420	 0.000000 
Pt129	 0.838141	 0.575967	 0.000000 
Pt130	 0.898511	 0.559791	 0.500000 
Pt131	 0.821964	 0.515597	 0.500000 
Pt132	 0.761594	 0.531773	 0.000000 
Pt133	 0.717400	 0.608319	 0.000000 
Pt134	 0.777770	 0.592143	 0.500000 
Pt135	 0.701224	 0.547949	 0.500000 
Pt136	 0.640853	 0.564125	 0.000000 
Pt137	 0.596659	 0.640672	 0.000000 
Pt138	 0.657030	 0.624495	 0.500000 
Pt139	 0.580483	 0.580301	 0.500000 
Pt140	 0.520113	 0.596477	 0.000000 
Pt141	 0.475918	 0.673024	 0.000000 
Pt142	 0.536289	 0.656848	 0.500000 
Pt143	 0.459742	 0.612654	 0.500000 
Pt144	 0.399372	 0.628830	 0.000000 
Pt145	 0.355178	 0.705376	 0.000000 
Pt146	 0.415548	 0.689200	 0.500000 
Pt147	 0.339002	 0.645006	 0.500000 
Pt148	 0.278631	 0.661182	 0.000000 
Pt149	 0.234437	 0.737729	 0.000000 
Pt150	 0.294807	 0.721553	 0.500000 
Pt151	 0.218261	 0.677358	 0.500000 
Pt152	 0.157890	 0.693535	 0.000000 
Pt153	 0.113696	 0.770081	 0.000000 
Pt154	 0.174067	 0.753905	 0.500000 
Pt155	 0.097520	 0.709711	 0.500000 
Pt156	 0.991234	 0.664355	 0.000000 
Pt157	 0.975058	 0.603985	 0.500000 
Pt158	 0.914687	 0.620161	 0.000000 
Pt159	 0.870493	 0.696708	 0.000000 
Pt160	 0.930863	 0.680531	 0.500000 
Pt161	 0.854317	 0.636337	 0.500000 
Pt162	 0.793946	 0.652513	 0.000000 
Pt163	 0.749752	 0.729060	 0.000000 
Pt164	 0.810123	 0.712884	 0.500000 
Pt165	 0.733576	 0.668690	 0.500000 
Pt166	 0.673206	 0.684866	 0.000000 
Pt167	 0.629012	 0.761412	 0.000000 
Pt168	 0.689382	 0.745236	 0.500000 
Pt169	 0.612835	 0.701042	 0.500000 
Pt170	 0.552465	 0.717218	 0.000000 
Pt171	 0.508271	 0.793765	 0.000000 
Pt172	 0.568641	 0.777589	 0.500000 
Pt173	 0.492095	 0.733394	 0.500000 
Pt174	 0.431724	 0.749571	 0.000000 
Pt175	 0.387530	 0.826117	 0.000000 
Pt176	 0.447900	 0.809941	 0.500000 
Pt177	 0.371354	 0.765747	 0.500000 
Pt178	 0.310984	 0.781923	 0.000000 
Pt179	 0.266789	 0.858470	 0.000000 
Pt180	 0.327160	 0.842293	 0.500000 
Pt181	 0.250613	 0.798099	 0.500000 
Pt182	 0.190243	 0.814275	 0.000000 
Pt183	 0.146049	 0.890822	 0.000000 
Pt184	 0.206419	 0.874646	 0.500000 
Pt185	 0.129872	 0.830452	 0.500000 
Pt186	 0.947040	 0.740902	 0.000000 
Pt187	 0.902845	 0.817448	 0.000000 
Pt188	 0.963216	 0.801272	 0.500000 
Pt189	 0.886669	 0.757078	 0.500000 
Pt190	 0.826299	 0.773254	 0.000000 
Pt191	 0.782105	 0.849801	 0.000000 
Pt192	 0.842475	 0.833625	 0.500000 
Pt193	 0.765928	 0.789430	 0.500000 
Pt194	 0.705558	 0.805607	 0.000000 
Pt195	 0.661364	 0.882153	 0.000000 
Pt196	 0.721734	 0.865977	 0.500000 
Pt197	 0.645188	 0.821783	 0.500000 
Pt198	 0.584817	 0.837959	 0.000000 
Pt199	 0.540623	 0.914505	 0.000000 
Pt200	 0.600994	 0.898329	 0.500000 
Pt201	 0.524447	 0.854135	 0.500000 
Pt202	 0.464077	 0.870311	 0.000000 
Pt203	 0.419882	 0.946858	 0.000000 
Pt204	 0.480253	 0.930682	 0.500000 
Pt205	 0.403706	 0.886488	 0.500000 
Pt206	 0.343336	 0.902664	 0.000000 
Pt207	 0.299142	 0.979210	 0.000000 
Pt208	 0.359512	 0.963034	 0.500000 
Pt209	 0.282966	 0.918840	 0.500000 
Pt210	 0.222595	 0.935016	 0.000000 
Pt211	 0.238771	 0.995386	 0.500000 
Pt212	 0.162225	 0.951192	 0.500000 
Pt213	 0.979392	 0.861643	 0.000000 
Pt214	 0.919022	 0.877819	 0.500000 
Pt215	 0.858651	 0.893995	 0.000000 
Pt216	 0.555638	 0.004616	 0.000000 
Pt217	 0.798281	 0.910171	 0.500000 
Pt218	 0.737911	 0.926347	 0.000000 
Pt219	 0.434897	 0.036968	 0.000000 
Pt220	 0.495268	 0.020792	 0.500000 
Pt221	 0.677540	 0.942523	 0.500000 
Pt222	 0.617170	 0.958700	 0.000000 
Pt223	 0.314157	 0.069320	 0.000000 
Pt224	 0.374527	 0.053144	 0.500000 
Pt225	 0.556799	 0.974876	 0.500000 
Pt226	 0.496429	 0.991052	 0.000000 
Pt227	 0.193416	 0.101673	 0.000000 
Pt228	 0.253786	 0.085497	 0.500000 
Pt229	 0.072675	 0.134025	 0.000000 
Pt230	 0.133045	 0.117849	 0.500000 
Pt231	 0.012305	 0.150201	 0.500000 
#                 ---end-of-data-block---
