data_Pt structure along [001] nx 11 ny 8 nz 1
_cell_length_a               31.360000
_cell_length_b               31.360000
_cell_length_c               2.771859
_cell_angle_alpha          90.000000
_cell_angle_beta           90.000000
_cell_angle_gamma          90.000000
_symmetry_cell_setting          Triclinic
_symmetry_space_group_name_H-M 'P 1' 
loop_
_atom_site_label
_atom_site_fract_x
_atom_site_fract_y
_atom_site_fract_z
Co1	 0.221023	 0.048503	 0.500000 
Co2	 0.162159	 0.097435	 0.000000 
Co3	 0.188671	 0.169244	 0.500000 
Co4	 0.129807	 0.218176	 0.000000 
Co5	 0.156319	 0.289985	 0.500000 
Co6	 0.097454	 0.338917	 0.000000 
Co7	 0.123966	 0.410725	 0.500000 
Co8	 0.065102	 0.459657	 0.000000 
Co9	 0.091614	 0.531466	 0.500000 
Co10	 0.032749	 0.580398	 0.000000 
Co11	 0.059262	 0.652207	 0.500000 
Co12	 0.000397	 0.701139	 0.000000 
Co13	 0.026909	 0.772948	 0.500000 
Co14	 0.306400	 0.071380	 0.500000 
Co15	 0.247536	 0.120312	 0.000000 
Co16	 0.274048	 0.192121	 0.500000 
Co17	 0.215183	 0.241053	 0.000000 
Co18	 0.241695	 0.312861	 0.500000 
Co19	 0.182831	 0.361793	 0.000000 
Co20	 0.209343	 0.433602	 0.500000 
Co21	 0.150478	 0.482534	 0.000000 
Co22	 0.176991	 0.554343	 0.500000 
Co23	 0.118126	 0.603275	 0.000000 
Co24	 0.144638	 0.675083	 0.500000 
Co25	 0.085774	 0.724016	 0.000000 
Co26	 0.112286	 0.795824	 0.500000 
Co27	 0.053421	 0.844756	 0.000000 
Co28	 0.365265	 0.022448	 0.000000 
Co29	 0.391777	 0.094256	 0.500000 
Co30	 0.332912	 0.143188	 0.000000 
Co31	 0.359424	 0.214997	 0.500000 
Co32	 0.300560	 0.263929	 0.000000 
Co33	 0.327072	 0.335738	 0.500000 
Co34	 0.268207	 0.384670	 0.000000 
Co35	 0.294720	 0.456479	 0.500000 
Co36	 0.235855	 0.505411	 0.000000 
Co37	 0.262367	 0.577219	 0.500000 
Co38	 0.203503	 0.626151	 0.000000 
Co39	 0.230015	 0.697960	 0.500000 
Co40	 0.171150	 0.746892	 0.000000 
Co41	 0.197662	 0.818701	 0.500000 
Co42	 0.138798	 0.867633	 0.000000 
Co43	 0.450641	 0.045324	 0.000000 
Co44	 0.477153	 0.117133	 0.500000 
Co45	 0.418289	 0.166065	 0.000000 
Co46	 0.444801	 0.237874	 0.500000 
Co47	 0.385936	 0.286806	 0.000000 
Co48	 0.412448	 0.358614	 0.500000 
Co49	 0.353584	 0.407546	 0.000000 
Co50	 0.380096	 0.479355	 0.500000 
Co51	 0.321232	 0.528287	 0.000000 
Co52	 0.347744	 0.600096	 0.500000 
Co53	 0.288879	 0.649028	 0.000000 
Co54	 0.315391	 0.720837	 0.500000 
Co55	 0.256527	 0.769769	 0.000000 
Co56	 0.283039	 0.841577	 0.500000 
Co57	 0.224174	 0.890509	 0.000000 
Co58	 0.536018	 0.068201	 0.000000 
Co59	 0.562530	 0.140010	 0.500000 
Co60	 0.503665	 0.188942	 0.000000 
Co61	 0.530177	 0.260750	 0.500000 
Co62	 0.471313	 0.309682	 0.000000 
Co63	 0.497825	 0.381491	 0.500000 
Co64	 0.438961	 0.430423	 0.000000 
Co65	 0.465473	 0.502232	 0.500000 
Co66	 0.406608	 0.551164	 0.000000 
Co67	 0.433120	 0.622972	 0.500000 
Co68	 0.374256	 0.671905	 0.000000 
Co69	 0.400768	 0.743713	 0.500000 
Co70	 0.341903	 0.792645	 0.000000 
Co71	 0.368416	 0.864454	 0.500000 
Co72	 0.309551	 0.913386	 0.000000 
Co73	 0.594882	 0.019269	 0.500000 
Co74	 0.621394	 0.091077	 0.000000 
Co75	 0.647906	 0.162886	 0.500000 
Co76	 0.589042	 0.211818	 0.000000 
Co77	 0.615554	 0.283627	 0.500000 
Co78	 0.556690	 0.332559	 0.000000 
Co79	 0.583202	 0.404368	 0.500000 
Co80	 0.524337	 0.453300	 0.000000 
Co81	 0.550849	 0.525108	 0.500000 
Co82	 0.491985	 0.574040	 0.000000 
Co83	 0.518497	 0.645849	 0.500000 
Co84	 0.459632	 0.694781	 0.000000 
Co85	 0.486145	 0.766590	 0.500000 
Co86	 0.427280	 0.815522	 0.000000 
Co87	 0.453792	 0.887331	 0.500000 
Co88	 0.394928	 0.936263	 0.000000 
Co89	 0.680259	 0.042145	 0.500000 
Co90	 0.706771	 0.113954	 0.000000 
Co91	 0.733283	 0.185763	 0.500000 
Co92	 0.674419	 0.234695	 0.000000 
Co93	 0.700931	 0.306503	 0.500000 
Co94	 0.642066	 0.355436	 0.000000 
Co95	 0.668578	 0.427244	 0.500000 
Co96	 0.609714	 0.476176	 0.000000 
Co97	 0.636226	 0.547985	 0.500000 
Co98	 0.577361	 0.596917	 0.000000 
Co99	 0.603873	 0.668726	 0.500000 
Co100	 0.545009	 0.717658	 0.000000 
Co101	 0.571521	 0.789466	 0.500000 
Co102	 0.512657	 0.838398	 0.000000 
Co103	 0.539169	 0.910207	 0.500000 
Co104	 0.480304	 0.959139	 0.000000 
Co105	 0.765635	 0.065022	 0.500000 
Co106	 0.792147	 0.136831	 0.000000 
Co107	 0.818660	 0.208639	 0.500000 
Co108	 0.759795	 0.257571	 0.000000 
Co109	 0.786307	 0.329380	 0.500000 
Co110	 0.727443	 0.378312	 0.000000 
Co111	 0.753955	 0.450121	 0.500000 
Co112	 0.695090	 0.499053	 0.000000 
Co113	 0.721602	 0.570861	 0.500000 
Co114	 0.662738	 0.619794	 0.000000 
Co115	 0.689250	 0.691602	 0.500000 
Co116	 0.630386	 0.740534	 0.000000 
Co117	 0.656898	 0.812343	 0.500000 
Co118	 0.598033	 0.861275	 0.000000 
Co119	 0.624545	 0.933084	 0.500000 
Co120	 0.565681	 0.982016	 0.000000 
Co121	 0.851012	 0.087899	 0.500000 
Co122	 0.877524	 0.159707	 0.000000 
Co123	 0.904036	 0.231516	 0.500000 
Co124	 0.845172	 0.280448	 0.000000 
Co125	 0.871684	 0.352257	 0.500000 
Co126	 0.812819	 0.401189	 0.000000 
Co127	 0.839331	 0.472997	 0.500000 
Co128	 0.780467	 0.521929	 0.000000 
Co129	 0.806979	 0.593738	 0.500000 
Co130	 0.748115	 0.642670	 0.000000 
Co131	 0.774627	 0.714479	 0.500000 
Co132	 0.715762	 0.763411	 0.000000 
Co133	 0.742274	 0.835220	 0.500000 
Co134	 0.683410	 0.884152	 0.000000 
Co135	 0.709922	 0.955960	 0.500000 
Co136	 0.936389	 0.110775	 0.500000 
Co137	 0.962901	 0.182584	 0.000000 
Co138	 0.989413	 0.254392	 0.500000 
Co139	 0.930548	 0.303325	 0.000000 
Co140	 0.957060	 0.375133	 0.500000 
Co141	 0.898196	 0.424065	 0.000000 
Co142	 0.924708	 0.495874	 0.500000 
Co143	 0.865844	 0.544806	 0.000000 
Co144	 0.892356	 0.616615	 0.500000 
Co145	 0.833491	 0.665547	 0.000000 
Co146	 0.860003	 0.737355	 0.500000 
Co147	 0.801139	 0.786287	 0.000000 
Co148	 0.827651	 0.858096	 0.500000 
Co149	 0.768786	 0.907028	 0.000000 
Co150	 0.795298	 0.978837	 0.500000 
Co151	 0.135647	 0.025627	 0.500000 
Co152	 0.103295	 0.146367	 0.500000 
Co153	 0.983572	 0.446942	 0.000000 
Co154	 0.070942	 0.267108	 0.500000 
Co155	 0.951220	 0.567683	 0.000000 
Co156	 0.038590	 0.387849	 0.500000 
Co157	 0.918868	 0.688423	 0.000000 
Co158	 0.006237	 0.508590	 0.500000 
Co159	 0.886515	 0.809164	 0.000000 
Co160	 0.854163	 0.929905	 0.000000 
#                 ---end-of-data-block---
