data_Pt structure along [001] nx 11 ny 8 nz 1
_cell_length_a               31.360000
_cell_length_b               31.360000
_cell_length_c               2.771859
_cell_angle_alpha          90.000000
_cell_angle_beta           90.000000
_cell_angle_gamma          90.000000
_symmetry_cell_setting          Triclinic
_symmetry_space_group_name_H-M 'P 1' 
loop_
_atom_site_label
_atom_site_fract_x
_atom_site_fract_y
_atom_site_fract_z
Co1	 0.319028	 0.032647	 0.500000 
Co2	 0.249505	 0.064677	 0.000000 
Co3	 0.256528	 0.140901	 0.500000 
Co4	 0.187005	 0.172930	 0.000000 
Co5	 0.194028	 0.249154	 0.500000 
Co6	 0.124505	 0.281183	 0.000000 
Co7	 0.131528	 0.357407	 0.500000 
Co8	 0.062005	 0.389437	 0.000000 
Co9	 0.069028	 0.465660	 0.500000 
Co10	 0.006528	 0.573913	 0.500000 
Co11	 0.388552	 0.000618	 0.000000 
Co12	 0.395575	 0.076842	 0.500000 
Co13	 0.326052	 0.108871	 0.000000 
Co14	 0.333075	 0.185095	 0.500000 
Co15	 0.263552	 0.217124	 0.000000 
Co16	 0.270575	 0.293348	 0.500000 
Co17	 0.201052	 0.325378	 0.000000 
Co18	 0.208075	 0.401601	 0.500000 
Co19	 0.138552	 0.433631	 0.000000 
Co20	 0.145575	 0.509854	 0.500000 
Co21	 0.076052	 0.541884	 0.000000 
Co22	 0.083075	 0.618108	 0.500000 
Co23	 0.013552	 0.650137	 0.000000 
Co24	 0.020575	 0.726361	 0.500000 
Co25	 0.465098	 0.044812	 0.000000 
Co26	 0.472121	 0.121036	 0.500000 
Co27	 0.402598	 0.153065	 0.000000 
Co28	 0.409621	 0.229289	 0.500000 
Co29	 0.340098	 0.261319	 0.000000 
Co30	 0.347121	 0.337542	 0.500000 
Co31	 0.277598	 0.369572	 0.000000 
Co32	 0.284621	 0.445795	 0.500000 
Co33	 0.215098	 0.477825	 0.000000 
Co34	 0.222121	 0.554049	 0.500000 
Co35	 0.152598	 0.586078	 0.000000 
Co36	 0.159621	 0.662302	 0.500000 
Co37	 0.090098	 0.694331	 0.000000 
Co38	 0.097121	 0.770555	 0.500000 
Co39	 0.027598	 0.802584	 0.000000 
Co40	 0.534621	 0.012783	 0.500000 
Co41	 0.541645	 0.089006	 0.000000 
Co42	 0.548668	 0.165230	 0.500000 
Co43	 0.479145	 0.197260	 0.000000 
Co44	 0.486168	 0.273483	 0.500000 
Co45	 0.416645	 0.305513	 0.000000 
Co46	 0.423668	 0.381736	 0.500000 
Co47	 0.354145	 0.413766	 0.000000 
Co48	 0.361168	 0.489990	 0.500000 
Co49	 0.291645	 0.522019	 0.000000 
Co50	 0.298668	 0.598243	 0.500000 
Co51	 0.229145	 0.630272	 0.000000 
Co52	 0.236168	 0.706496	 0.500000 
Co53	 0.166645	 0.738525	 0.000000 
Co54	 0.173668	 0.814749	 0.500000 
Co55	 0.104145	 0.846779	 0.000000 
Co56	 0.611168	 0.056977	 0.500000 
Co57	 0.618191	 0.133201	 0.000000 
Co58	 0.625215	 0.209424	 0.500000 
Co59	 0.555691	 0.241454	 0.000000 
Co60	 0.562715	 0.317677	 0.500000 
Co61	 0.493191	 0.349707	 0.000000 
Co62	 0.500215	 0.425931	 0.500000 
Co63	 0.430691	 0.457960	 0.000000 
Co64	 0.437715	 0.534184	 0.500000 
Co65	 0.368191	 0.566213	 0.000000 
Co66	 0.375215	 0.642437	 0.500000 
Co67	 0.305691	 0.674466	 0.000000 
Co68	 0.312715	 0.750690	 0.500000 
Co69	 0.243191	 0.782720	 0.000000 
Co70	 0.250215	 0.858943	 0.500000 
Co71	 0.180691	 0.890973	 0.000000 
Co72	 0.687715	 0.101171	 0.500000 
Co73	 0.694738	 0.177395	 0.000000 
Co74	 0.701761	 0.253618	 0.500000 
Co75	 0.632238	 0.285648	 0.000000 
Co76	 0.639261	 0.361872	 0.500000 
Co77	 0.569738	 0.393901	 0.000000 
Co78	 0.576761	 0.470125	 0.500000 
Co79	 0.507238	 0.502154	 0.000000 
Co80	 0.514261	 0.578378	 0.500000 
Co81	 0.444738	 0.610407	 0.000000 
Co82	 0.451761	 0.686631	 0.500000 
Co83	 0.382238	 0.718661	 0.000000 
Co84	 0.389261	 0.794884	 0.500000 
Co85	 0.319738	 0.826914	 0.000000 
Co86	 0.326761	 0.903137	 0.500000 
Co87	 0.257238	 0.935167	 0.000000 
Co88	 0.764261	 0.145365	 0.500000 
Co89	 0.771284	 0.221589	 0.000000 
Co90	 0.778308	 0.297813	 0.500000 
Co91	 0.708784	 0.329842	 0.000000 
Co92	 0.715808	 0.406066	 0.500000 
Co93	 0.646284	 0.438095	 0.000000 
Co94	 0.653308	 0.514319	 0.500000 
Co95	 0.583784	 0.546348	 0.000000 
Co96	 0.590808	 0.622572	 0.500000 
Co97	 0.521284	 0.654602	 0.000000 
Co98	 0.528308	 0.730825	 0.500000 
Co99	 0.458784	 0.762855	 0.000000 
Co100	 0.465808	 0.839078	 0.500000 
Co101	 0.396284	 0.871108	 0.000000 
Co102	 0.403308	 0.947332	 0.500000 
Co103	 0.333784	 0.979361	 0.000000 
Co104	 0.840808	 0.189559	 0.500000 
Co105	 0.847831	 0.265783	 0.000000 
Co106	 0.854854	 0.342007	 0.500000 
Co107	 0.785331	 0.374036	 0.000000 
Co108	 0.792354	 0.450260	 0.500000 
Co109	 0.722831	 0.482289	 0.000000 
Co110	 0.729854	 0.558513	 0.500000 
Co111	 0.660331	 0.590543	 0.000000 
Co112	 0.667354	 0.666766	 0.500000 
Co113	 0.597831	 0.698796	 0.000000 
Co114	 0.604854	 0.775019	 0.500000 
Co115	 0.535331	 0.807049	 0.000000 
Co116	 0.542354	 0.883273	 0.500000 
Co117	 0.472831	 0.915302	 0.000000 
Co118	 0.479854	 0.991526	 0.500000 
Co119	 0.917354	 0.233754	 0.500000 
Co120	 0.924378	 0.309977	 0.000000 
Co121	 0.931401	 0.386201	 0.500000 
Co122	 0.861878	 0.418230	 0.000000 
Co123	 0.868901	 0.494454	 0.500000 
Co124	 0.799378	 0.526484	 0.000000 
Co125	 0.806401	 0.602707	 0.500000 
Co126	 0.736878	 0.634737	 0.000000 
Co127	 0.743901	 0.710960	 0.500000 
Co128	 0.674378	 0.742990	 0.000000 
Co129	 0.681401	 0.819214	 0.500000 
Co130	 0.611878	 0.851243	 0.000000 
Co131	 0.618901	 0.927467	 0.500000 
Co132	 0.549378	 0.959496	 0.000000 
Co133	 0.993901	 0.277948	 0.500000 
Co134	 0.938424	 0.462425	 0.000000 
Co135	 0.945447	 0.538648	 0.500000 
Co136	 0.875924	 0.570678	 0.000000 
Co137	 0.882947	 0.646901	 0.500000 
Co138	 0.813424	 0.678931	 0.000000 
Co139	 0.820447	 0.755155	 0.500000 
Co140	 0.750924	 0.787184	 0.000000 
Co141	 0.757947	 0.863408	 0.500000 
Co142	 0.688424	 0.895437	 0.000000 
Co143	 0.695447	 0.971661	 0.500000 
Co144	 0.179982	 0.096706	 0.500000 
Co145	 0.952471	 0.614872	 0.000000 
Co146	 0.117482	 0.204960	 0.500000 
Co147	 0.889971	 0.723125	 0.000000 
Co148	 0.054982	 0.313213	 0.500000 
Co149	 0.827471	 0.831378	 0.000000 
Co150	 0.764971	 0.939631	 0.000000 
#                 ---end-of-data-block---
