data_TiO2_rutile [001] nx 7 ny 7 nz 1
_cell_length_a               32.158000
_cell_length_b               32.158000
_cell_length_c               2.959000
_cell_angle_alpha          90.000000
_cell_angle_beta           90.000000
_cell_angle_gamma          90.000000
_symmetry_cell_setting          Triclinic
_symmetry_space_group_name_H-M 'P 1' 
loop_
_atom_site_label
_atom_site_fract_x
_atom_site_fract_y
_atom_site_fract_z
Ti1	 0.633141	 0.022174	 0.500000 
Ti2	 0.509423	 0.093603	 0.500000 
Ti3	 0.411850	 0.067458	 0.000000 
Ti4	 0.385705	 0.165031	 0.500000 
Ti5	 0.288132	 0.138887	 0.000000 
Ti6	 0.261987	 0.236460	 0.500000 
Ti7	 0.164414	 0.210315	 0.000000 
Ti8	 0.138269	 0.307888	 0.500000 
Ti9	 0.040696	 0.281744	 0.000000 
Ti10	 0.014551	 0.379317	 0.500000 
Ti11	 0.730714	 0.048319	 0.000000 
Ti12	 0.704569	 0.145892	 0.500000 
Ti13	 0.606996	 0.119747	 0.000000 
Ti14	 0.580852	 0.217321	 0.500000 
Ti15	 0.483278	 0.191176	 0.000000 
Ti16	 0.457134	 0.288749	 0.500000 
Ti17	 0.359560	 0.262605	 0.000000 
Ti18	 0.333416	 0.360178	 0.500000 
Ti19	 0.235842	 0.334033	 0.000000 
Ti20	 0.209698	 0.431606	 0.500000 
Ti21	 0.112125	 0.405462	 0.000000 
Ti22	 0.085980	 0.503035	 0.500000 
Ti23	 0.828287	 0.074463	 0.500000 
Ti24	 0.802143	 0.172037	 0.000000 
Ti25	 0.775998	 0.269610	 0.500000 
Ti26	 0.678425	 0.243465	 0.000000 
Ti27	 0.652280	 0.341039	 0.500000 
Ti28	 0.554707	 0.314894	 0.000000 
Ti29	 0.528562	 0.412467	 0.500000 
Ti30	 0.430989	 0.386322	 0.000000 
Ti31	 0.404844	 0.483896	 0.500000 
Ti32	 0.307271	 0.457751	 0.000000 
Ti33	 0.281126	 0.555324	 0.500000 
Ti34	 0.183553	 0.529180	 0.000000 
Ti35	 0.157408	 0.626753	 0.500000 
Ti36	 0.059835	 0.600608	 0.000000 
Ti37	 0.899716	 0.198181	 0.500000 
Ti38	 0.873571	 0.295755	 0.000000 
Ti39	 0.847427	 0.393328	 0.500000 
Ti40	 0.749853	 0.367183	 0.000000 
Ti41	 0.723709	 0.464756	 0.500000 
Ti42	 0.626135	 0.438612	 0.000000 
Ti43	 0.599991	 0.536185	 0.500000 
Ti44	 0.502418	 0.510040	 0.000000 
Ti45	 0.476273	 0.607614	 0.500000 
Ti46	 0.378700	 0.581469	 0.000000 
Ti47	 0.352555	 0.679042	 0.500000 
Ti48	 0.254982	 0.652898	 0.000000 
Ti49	 0.228837	 0.750471	 0.500000 
Ti50	 0.131264	 0.724326	 0.000000 
Ti51	 0.971145	 0.321899	 0.500000 
Ti52	 0.945000	 0.419473	 0.000000 
Ti53	 0.918855	 0.517046	 0.500000 
Ti54	 0.821282	 0.490901	 0.000000 
Ti55	 0.795137	 0.588474	 0.500000 
Ti56	 0.697564	 0.562330	 0.000000 
Ti57	 0.671419	 0.659903	 0.500000 
Ti58	 0.573846	 0.633758	 0.000000 
Ti59	 0.547701	 0.731332	 0.500000 
Ti60	 0.450128	 0.705187	 0.000000 
Ti61	 0.423984	 0.802760	 0.500000 
Ti62	 0.326410	 0.776615	 0.000000 
Ti63	 0.300266	 0.874189	 0.500000 
Ti64	 0.202692	 0.848044	 0.000000 
Ti65	 0.990284	 0.640764	 0.500000 
Ti66	 0.892711	 0.614619	 0.000000 
Ti67	 0.866566	 0.712192	 0.500000 
Ti68	 0.768993	 0.686048	 0.000000 
Ti69	 0.742848	 0.783621	 0.500000 
Ti70	 0.645275	 0.757476	 0.000000 
Ti71	 0.619130	 0.855049	 0.500000 
Ti72	 0.521557	 0.828905	 0.000000 
Ti73	 0.495412	 0.926478	 0.500000 
Ti74	 0.397839	 0.900333	 0.000000 
Ti75	 0.371694	 0.997907	 0.500000 
Ti76	 0.274121	 0.971762	 0.000000 
Ti77	 0.964139	 0.738337	 0.000000 
Ti78	 0.840421	 0.809766	 0.000000 
Ti79	 0.314276	 0.041313	 0.500000 
Ti80	 0.716703	 0.881194	 0.000000 
Ti81	 0.190559	 0.112742	 0.500000 
Ti82	 0.592985	 0.952623	 0.000000 
Ti83	 0.066841	 0.184171	 0.500000 
#                 ---end-of-data-block---
