data_STO [001]8x8x1
_cell_length_a               31.240000
_cell_length_b               31.240000
_cell_length_c               3.905000
_cell_angle_alpha          90.000000
_cell_angle_beta           90.000000
_cell_angle_gamma          90.000000
_symmetry_cell_setting          Triclinic
_symmetry_space_group_name_H-M 'P 1' 
loop_
_atom_site_label
_atom_site_fract_x
_atom_site_fract_y
_atom_site_fract_z
Sr1	 0.257031	 0.000121	 0.000000 
Ti2	 0.279907	 0.085498	 0.500000 
Sr3	 0.194531	 0.108374	 0.000000 
Ti4	 0.217407	 0.193751	 0.500000 
Sr5	 0.132031	 0.216627	 0.000000 
Ti6	 0.154907	 0.302004	 0.500000 
Sr7	 0.069531	 0.324881	 0.000000 
Ti8	 0.092407	 0.410257	 0.500000 
Sr9	 0.007031	 0.433134	 0.000000 
Ti10	 0.029907	 0.518510	 0.500000 
Ti11	 0.450660	 0.039744	 0.500000 
Sr12	 0.365284	 0.062621	 0.000000 
Ti13	 0.388160	 0.147998	 0.500000 
Sr14	 0.302784	 0.170874	 0.000000 
Ti15	 0.325660	 0.256251	 0.500000 
Sr16	 0.240284	 0.279127	 0.000000 
Ti17	 0.263160	 0.364504	 0.500000 
Sr18	 0.177784	 0.387381	 0.000000 
Ti19	 0.200660	 0.472757	 0.500000 
Sr20	 0.115284	 0.495634	 0.000000 
Ti21	 0.138160	 0.581010	 0.500000 
Sr22	 0.052784	 0.603887	 0.000000 
Ti23	 0.075660	 0.689263	 0.500000 
Sr24	 0.536037	 0.016868	 0.000000 
Ti25	 0.558914	 0.102244	 0.500000 
Sr26	 0.473537	 0.125121	 0.000000 
Ti27	 0.496414	 0.210498	 0.500000 
Sr28	 0.411037	 0.233374	 0.000000 
Ti29	 0.433914	 0.318751	 0.500000 
Sr30	 0.348537	 0.341627	 0.000000 
Ti31	 0.371414	 0.427004	 0.500000 
Sr32	 0.286037	 0.449881	 0.000000 
Ti33	 0.308914	 0.535257	 0.500000 
Sr34	 0.223537	 0.558134	 0.000000 
Ti35	 0.246414	 0.643510	 0.500000 
Sr36	 0.161037	 0.666387	 0.000000 
Ti37	 0.183914	 0.751763	 0.500000 
Sr38	 0.098537	 0.774640	 0.000000 
Sr39	 0.644290	 0.079368	 0.000000 
Ti40	 0.667167	 0.164744	 0.500000 
Sr41	 0.581790	 0.187621	 0.000000 
Ti42	 0.604667	 0.272998	 0.500000 
Sr43	 0.519290	 0.295874	 0.000000 
Ti44	 0.542167	 0.381251	 0.500000 
Sr45	 0.456790	 0.404127	 0.000000 
Ti46	 0.479667	 0.489504	 0.500000 
Sr47	 0.394290	 0.512381	 0.000000 
Ti48	 0.417167	 0.597757	 0.500000 
Sr49	 0.331790	 0.620634	 0.000000 
Ti50	 0.354667	 0.706010	 0.500000 
Sr51	 0.269290	 0.728887	 0.000000 
Ti52	 0.292167	 0.814263	 0.500000 
Sr53	 0.206790	 0.837140	 0.000000 
Ti54	 0.729667	 0.056491	 0.500000 
Sr55	 0.752543	 0.141868	 0.000000 
Ti56	 0.775420	 0.227244	 0.500000 
Sr57	 0.690043	 0.250121	 0.000000 
Ti58	 0.712920	 0.335498	 0.500000 
Sr59	 0.627543	 0.358374	 0.000000 
Ti60	 0.650420	 0.443751	 0.500000 
Sr61	 0.565043	 0.466627	 0.000000 
Ti62	 0.587920	 0.552004	 0.500000 
Sr63	 0.502543	 0.574881	 0.000000 
Ti64	 0.525420	 0.660257	 0.500000 
Sr65	 0.440043	 0.683134	 0.000000 
Ti66	 0.462920	 0.768510	 0.500000 
Sr67	 0.377543	 0.791387	 0.000000 
Ti68	 0.400420	 0.876763	 0.500000 
Sr69	 0.315043	 0.899640	 0.000000 
Ti70	 0.837920	 0.118991	 0.500000 
Sr71	 0.860796	 0.204368	 0.000000 
Ti72	 0.883673	 0.289744	 0.500000 
Sr73	 0.798296	 0.312621	 0.000000 
Ti74	 0.821173	 0.397998	 0.500000 
Sr75	 0.735796	 0.420874	 0.000000 
Ti76	 0.758673	 0.506251	 0.500000 
Sr77	 0.673296	 0.529127	 0.000000 
Ti78	 0.696173	 0.614504	 0.500000 
Sr79	 0.610796	 0.637381	 0.000000 
Ti80	 0.633673	 0.722757	 0.500000 
Sr81	 0.548296	 0.745634	 0.000000 
Ti82	 0.571173	 0.831010	 0.500000 
Sr83	 0.485796	 0.853887	 0.000000 
Ti84	 0.508673	 0.939263	 0.500000 
Sr85	 0.423296	 0.962140	 0.000000 
Ti86	 0.946173	 0.181491	 0.500000 
Sr87	 0.969050	 0.266868	 0.000000 
Ti88	 0.991926	 0.352244	 0.500000 
Sr89	 0.906550	 0.375121	 0.000000 
Ti90	 0.929426	 0.460498	 0.500000 
Sr91	 0.844050	 0.483374	 0.000000 
Ti92	 0.866926	 0.568751	 0.500000 
Sr93	 0.781550	 0.591627	 0.000000 
Ti94	 0.804426	 0.677004	 0.500000 
Sr95	 0.719050	 0.699881	 0.000000 
Ti96	 0.741926	 0.785257	 0.500000 
Sr97	 0.656550	 0.808134	 0.000000 
Ti98	 0.679426	 0.893510	 0.500000 
Sr99	 0.594050	 0.916387	 0.000000 
Sr100	 0.952303	 0.545874	 0.000000 
Ti101	 0.975179	 0.631251	 0.500000 
Sr102	 0.889803	 0.654127	 0.000000 
Ti103	 0.912679	 0.739504	 0.500000 
Sr104	 0.827303	 0.762381	 0.000000 
Ti105	 0.850179	 0.847757	 0.500000 
Sr106	 0.764803	 0.870634	 0.000000 
Ti107	 0.787679	 0.956010	 0.500000 
Sr108	 0.702303	 0.978887	 0.000000 
#                 ---end-of-data-block---
