data_STO [001]8x8x1
_cell_length_a               31.240000
_cell_length_b               31.240000
_cell_length_c               3.905000
_cell_angle_alpha          90.000000
_cell_angle_beta           90.000000
_cell_angle_gamma          90.000000
_symmetry_cell_setting          Triclinic
_symmetry_space_group_name_H-M 'P 1' 
loop_
_atom_site_label
_atom_site_fract_x
_atom_site_fract_y
_atom_site_fract_z
Ti1	 0.761309	 0.016221	 0.500000 
Ti2	 0.640568	 0.048574	 0.500000 
Sr3	 0.564022	 0.004379	 0.000000 
Ti4	 0.519827	 0.080926	 0.500000 
Sr5	 0.443281	 0.036732	 0.000000 
Ti6	 0.399087	 0.113278	 0.500000 
Sr7	 0.322540	 0.069084	 0.000000 
Ti8	 0.278346	 0.145631	 0.500000 
Sr9	 0.201799	 0.101437	 0.000000 
Ti10	 0.157605	 0.177983	 0.500000 
Sr11	 0.081059	 0.133789	 0.000000 
Ti12	 0.036865	 0.210335	 0.500000 
Sr13	 0.837855	 0.060415	 0.000000 
Ti14	 0.793661	 0.136962	 0.500000 
Sr15	 0.717115	 0.092768	 0.000000 
Ti16	 0.672921	 0.169314	 0.500000 
Sr17	 0.596374	 0.125120	 0.000000 
Ti18	 0.552180	 0.201667	 0.500000 
Sr19	 0.475633	 0.157472	 0.000000 
Ti20	 0.431439	 0.234019	 0.500000 
Sr21	 0.354893	 0.189825	 0.000000 
Ti22	 0.310698	 0.266371	 0.500000 
Sr23	 0.234152	 0.222177	 0.000000 
Ti24	 0.189958	 0.298724	 0.500000 
Sr25	 0.113411	 0.254530	 0.000000 
Ti26	 0.069217	 0.331076	 0.500000 
Sr27	 0.870208	 0.181156	 0.000000 
Ti28	 0.826014	 0.257703	 0.500000 
Sr29	 0.749467	 0.213508	 0.000000 
Ti30	 0.705273	 0.290055	 0.500000 
Sr31	 0.628726	 0.245861	 0.000000 
Ti32	 0.584532	 0.322407	 0.500000 
Sr33	 0.507986	 0.278213	 0.000000 
Ti34	 0.463791	 0.354760	 0.500000 
Sr35	 0.387245	 0.310566	 0.000000 
Ti36	 0.343051	 0.387112	 0.500000 
Sr37	 0.266504	 0.342918	 0.000000 
Ti38	 0.222310	 0.419465	 0.500000 
Sr39	 0.145763	 0.375270	 0.000000 
Ti40	 0.101569	 0.451817	 0.500000 
Sr41	 0.025023	 0.407623	 0.000000 
Sr42	 0.902560	 0.301897	 0.000000 
Ti43	 0.858366	 0.378443	 0.500000 
Sr44	 0.781819	 0.334249	 0.000000 
Ti45	 0.737625	 0.410796	 0.500000 
Sr46	 0.661079	 0.366602	 0.000000 
Ti47	 0.616885	 0.443148	 0.500000 
Sr48	 0.540338	 0.398954	 0.000000 
Ti49	 0.496144	 0.475500	 0.500000 
Sr50	 0.419597	 0.431306	 0.000000 
Ti51	 0.375403	 0.507853	 0.500000 
Sr52	 0.298857	 0.463659	 0.000000 
Ti53	 0.254662	 0.540205	 0.500000 
Sr54	 0.178116	 0.496011	 0.000000 
Ti55	 0.133922	 0.572558	 0.500000 
Sr56	 0.057375	 0.528363	 0.000000 
Ti57	 0.013181	 0.604910	 0.500000 
Sr58	 0.934913	 0.422638	 0.000000 
Ti59	 0.890718	 0.499184	 0.500000 
Sr60	 0.814172	 0.454990	 0.000000 
Ti61	 0.769978	 0.531536	 0.500000 
Sr62	 0.693431	 0.487342	 0.000000 
Ti63	 0.649237	 0.563889	 0.500000 
Sr64	 0.572690	 0.519695	 0.000000 
Ti65	 0.528496	 0.596241	 0.500000 
Sr66	 0.451950	 0.552047	 0.000000 
Ti67	 0.407755	 0.628594	 0.500000 
Sr68	 0.331209	 0.584399	 0.000000 
Ti69	 0.287015	 0.660946	 0.500000 
Sr70	 0.210468	 0.616752	 0.000000 
Ti71	 0.166274	 0.693298	 0.500000 
Sr72	 0.089727	 0.649104	 0.000000 
Ti73	 0.045533	 0.725651	 0.500000 
Sr74	 0.967265	 0.543378	 0.000000 
Ti75	 0.923071	 0.619925	 0.500000 
Sr76	 0.846524	 0.575731	 0.000000 
Ti77	 0.802330	 0.652277	 0.500000 
Sr78	 0.725784	 0.608083	 0.000000 
Ti79	 0.681589	 0.684630	 0.500000 
Sr80	 0.605043	 0.640435	 0.000000 
Ti81	 0.560849	 0.716982	 0.500000 
Sr82	 0.484302	 0.672788	 0.000000 
Ti83	 0.440108	 0.749334	 0.500000 
Sr84	 0.363561	 0.705140	 0.000000 
Ti85	 0.319367	 0.781687	 0.500000 
Sr86	 0.242821	 0.737493	 0.000000 
Ti87	 0.198626	 0.814039	 0.500000 
Sr88	 0.122080	 0.769845	 0.000000 
Ti89	 0.077886	 0.846391	 0.500000 
Sr90	 0.999617	 0.664119	 0.000000 
Ti91	 0.955423	 0.740666	 0.500000 
Sr92	 0.878877	 0.696471	 0.000000 
Ti93	 0.834682	 0.773018	 0.500000 
Sr94	 0.758136	 0.728824	 0.000000 
Ti95	 0.713942	 0.805370	 0.500000 
Sr96	 0.637395	 0.761176	 0.000000 
Ti97	 0.593201	 0.837723	 0.500000 
Sr98	 0.516654	 0.793529	 0.000000 
Ti99	 0.472460	 0.870075	 0.500000 
Sr100	 0.395914	 0.825881	 0.000000 
Ti101	 0.351720	 0.902427	 0.500000 
Sr102	 0.275173	 0.858233	 0.000000 
Ti103	 0.230979	 0.934780	 0.500000 
Sr104	 0.154432	 0.890586	 0.000000 
Ti105	 0.110238	 0.967132	 0.500000 
Ti106	 0.987776	 0.861406	 0.500000 
Sr107	 0.911229	 0.817212	 0.000000 
Ti108	 0.867035	 0.893759	 0.500000 
Sr109	 0.790488	 0.849564	 0.000000 
Ti110	 0.746294	 0.926111	 0.500000 
Sr111	 0.669748	 0.881917	 0.000000 
Ti112	 0.625553	 0.958463	 0.500000 
Sr113	 0.549007	 0.914269	 0.000000 
Ti114	 0.504813	 0.990816	 0.500000 
Sr115	 0.428266	 0.946622	 0.000000 
Sr116	 0.307525	 0.978974	 0.000000 
#                 ---end-of-data-block---
