data_STO [001]8x8x1
_cell_length_a               31.240000
_cell_length_b               31.240000
_cell_length_c               3.905000
_cell_angle_alpha          90.000000
_cell_angle_beta           90.000000
_cell_angle_gamma          90.000000
_symmetry_cell_setting          Triclinic
_symmetry_space_group_name_H-M 'P 1' 
loop_
_atom_site_label
_atom_site_fract_x
_atom_site_fract_y
_atom_site_fract_z
Ti1	 0.722847	 0.052207	 0.500000 
Sr2	 0.646300	 0.008013	 0.000000 
Ti3	 0.602106	 0.084559	 0.500000 
Sr4	 0.525560	 0.040365	 0.000000 
Ti5	 0.481366	 0.116912	 0.500000 
Sr6	 0.404819	 0.072718	 0.000000 
Ti7	 0.360625	 0.149264	 0.500000 
Sr8	 0.284078	 0.105070	 0.000000 
Ti9	 0.239884	 0.181616	 0.500000 
Sr10	 0.163338	 0.137422	 0.000000 
Ti11	 0.119143	 0.213969	 0.500000 
Sr12	 0.042597	 0.169775	 0.000000 
Ti13	 0.843588	 0.019855	 0.500000 
Sr14	 0.799394	 0.096401	 0.000000 
Ti15	 0.755199	 0.172948	 0.500000 
Sr16	 0.678653	 0.128754	 0.000000 
Ti17	 0.634459	 0.205300	 0.500000 
Sr18	 0.557912	 0.161106	 0.000000 
Ti19	 0.513718	 0.237652	 0.500000 
Sr20	 0.437171	 0.193458	 0.000000 
Ti21	 0.392977	 0.270005	 0.500000 
Sr22	 0.316431	 0.225811	 0.000000 
Ti23	 0.272237	 0.302357	 0.500000 
Sr24	 0.195690	 0.258163	 0.000000 
Ti25	 0.151496	 0.334710	 0.500000 
Sr26	 0.074949	 0.290515	 0.000000 
Ti27	 0.030755	 0.367062	 0.500000 
Ti28	 0.875940	 0.140595	 0.500000 
Sr29	 0.831746	 0.217142	 0.000000 
Ti30	 0.787552	 0.293688	 0.500000 
Sr31	 0.711005	 0.249494	 0.000000 
Ti32	 0.666811	 0.326041	 0.500000 
Sr33	 0.590265	 0.281847	 0.000000 
Ti34	 0.546070	 0.358393	 0.500000 
Sr35	 0.469524	 0.314199	 0.000000 
Ti36	 0.425330	 0.390746	 0.500000 
Sr37	 0.348783	 0.346551	 0.000000 
Ti38	 0.304589	 0.423098	 0.500000 
Sr39	 0.228042	 0.378904	 0.000000 
Ti40	 0.183848	 0.455450	 0.500000 
Sr41	 0.107302	 0.411256	 0.000000 
Ti42	 0.063107	 0.487803	 0.500000 
Ti43	 0.908293	 0.261336	 0.500000 
Sr44	 0.864098	 0.337883	 0.000000 
Ti45	 0.819904	 0.414429	 0.500000 
Sr46	 0.743358	 0.370235	 0.000000 
Ti47	 0.699163	 0.446782	 0.500000 
Sr48	 0.622617	 0.402587	 0.000000 
Ti49	 0.578423	 0.479134	 0.500000 
Sr50	 0.501876	 0.434940	 0.000000 
Ti51	 0.457682	 0.511486	 0.500000 
Sr52	 0.381135	 0.467292	 0.000000 
Ti53	 0.336941	 0.543839	 0.500000 
Sr54	 0.260395	 0.499645	 0.000000 
Ti55	 0.216201	 0.576191	 0.500000 
Sr56	 0.139654	 0.531997	 0.000000 
Ti57	 0.095460	 0.608543	 0.500000 
Sr58	 0.018913	 0.564349	 0.000000 
Ti59	 0.940645	 0.382077	 0.500000 
Sr60	 0.896451	 0.458623	 0.000000 
Ti61	 0.852257	 0.535170	 0.500000 
Sr62	 0.775710	 0.490976	 0.000000 
Ti63	 0.731516	 0.567522	 0.500000 
Sr64	 0.654969	 0.523328	 0.000000 
Ti65	 0.610775	 0.599875	 0.500000 
Sr66	 0.534229	 0.555680	 0.000000 
Ti67	 0.490034	 0.632227	 0.500000 
Sr68	 0.413488	 0.588033	 0.000000 
Ti69	 0.369294	 0.664579	 0.500000 
Sr70	 0.292747	 0.620385	 0.000000 
Ti71	 0.248553	 0.696932	 0.500000 
Sr72	 0.172006	 0.652738	 0.000000 
Ti73	 0.127812	 0.729284	 0.500000 
Sr74	 0.051266	 0.685090	 0.000000 
Ti75	 0.972997	 0.502818	 0.500000 
Sr76	 0.928803	 0.579364	 0.000000 
Ti77	 0.884609	 0.655911	 0.500000 
Sr78	 0.808062	 0.611716	 0.000000 
Ti79	 0.763868	 0.688263	 0.500000 
Sr80	 0.687322	 0.644069	 0.000000 
Ti81	 0.643127	 0.720615	 0.500000 
Sr82	 0.566581	 0.676421	 0.000000 
Ti83	 0.522387	 0.752968	 0.500000 
Sr84	 0.445840	 0.708774	 0.000000 
Ti85	 0.401646	 0.785320	 0.500000 
Sr86	 0.325099	 0.741126	 0.000000 
Ti87	 0.280905	 0.817673	 0.500000 
Sr88	 0.204359	 0.773478	 0.000000 
Ti89	 0.160165	 0.850025	 0.500000 
Sr90	 0.083618	 0.805831	 0.000000 
Sr91	 0.961156	 0.700105	 0.000000 
Ti92	 0.916961	 0.776651	 0.500000 
Sr93	 0.840415	 0.732457	 0.000000 
Ti94	 0.796221	 0.809004	 0.500000 
Sr95	 0.719674	 0.764810	 0.000000 
Ti96	 0.675480	 0.841356	 0.500000 
Sr97	 0.598933	 0.797162	 0.000000 
Ti98	 0.554739	 0.873708	 0.500000 
Sr99	 0.478193	 0.829514	 0.000000 
Ti100	 0.433998	 0.906061	 0.500000 
Sr101	 0.357452	 0.861867	 0.000000 
Ti102	 0.313258	 0.938413	 0.500000 
Sr103	 0.236711	 0.894219	 0.000000 
Ti104	 0.192517	 0.970766	 0.500000 
Sr105	 0.115970	 0.926571	 0.000000 
Sr106	 0.993508	 0.820846	 0.000000 
Sr107	 0.872767	 0.853198	 0.000000 
Sr108	 0.752026	 0.885550	 0.000000 
Sr109	 0.631286	 0.917903	 0.000000 
Ti110	 0.328272	 0.028523	 0.500000 
Sr111	 0.510545	 0.950255	 0.000000 
Ti112	 0.207532	 0.060876	 0.500000 
Sr113	 0.389804	 0.982607	 0.000000 
Ti114	 0.086791	 0.093228	 0.500000 
#                 ---end-of-data-block---
