data_STO [001]8x8x1
_cell_length_a               31.240000
_cell_length_b               31.240000
_cell_length_c               3.905000
_cell_angle_alpha          90.000000
_cell_angle_beta           90.000000
_cell_angle_gamma          90.000000
_symmetry_cell_setting          Triclinic
_symmetry_space_group_name_H-M 'P 1' 
loop_
_atom_site_label
_atom_site_fract_x
_atom_site_fract_y
_atom_site_fract_z
Sr1	 0.775954	 0.010364	 0.000000 
Ti2	 0.731760	 0.086911	 0.500000 
Sr3	 0.655213	 0.042717	 0.000000 
Ti4	 0.611019	 0.119263	 0.500000 
Sr5	 0.534472	 0.075069	 0.000000 
Ti6	 0.490278	 0.151616	 0.500000 
Sr7	 0.413732	 0.107421	 0.000000 
Ti8	 0.369537	 0.183968	 0.500000 
Sr9	 0.292991	 0.139774	 0.000000 
Ti10	 0.248797	 0.216320	 0.500000 
Sr11	 0.172250	 0.172126	 0.000000 
Ti12	 0.128056	 0.248673	 0.500000 
Sr13	 0.051509	 0.204479	 0.000000 
Ti14	 0.007315	 0.281025	 0.500000 
Ti15	 0.852500	 0.054558	 0.500000 
Sr16	 0.808306	 0.131105	 0.000000 
Ti17	 0.764112	 0.207652	 0.500000 
Sr18	 0.687565	 0.163457	 0.000000 
Ti19	 0.643371	 0.240004	 0.500000 
Sr20	 0.566825	 0.195810	 0.000000 
Ti21	 0.522630	 0.272356	 0.500000 
Sr22	 0.446084	 0.228162	 0.000000 
Ti23	 0.401890	 0.304709	 0.500000 
Sr24	 0.325343	 0.260515	 0.000000 
Ti25	 0.281149	 0.337061	 0.500000 
Sr26	 0.204602	 0.292867	 0.000000 
Ti27	 0.160408	 0.369413	 0.500000 
Sr28	 0.083862	 0.325219	 0.000000 
Ti29	 0.039668	 0.401766	 0.500000 
Ti30	 0.884853	 0.175299	 0.500000 
Sr31	 0.840658	 0.251846	 0.000000 
Ti32	 0.796464	 0.328392	 0.500000 
Sr33	 0.719918	 0.284198	 0.000000 
Ti34	 0.675724	 0.360745	 0.500000 
Sr35	 0.599177	 0.316550	 0.000000 
Ti36	 0.554983	 0.393097	 0.500000 
Sr37	 0.478436	 0.348903	 0.000000 
Ti38	 0.434242	 0.425449	 0.500000 
Sr39	 0.357696	 0.381255	 0.000000 
Ti40	 0.313501	 0.457802	 0.500000 
Sr41	 0.236955	 0.413608	 0.000000 
Ti42	 0.192761	 0.490154	 0.500000 
Sr43	 0.116214	 0.445960	 0.000000 
Ti44	 0.072020	 0.522507	 0.500000 
Ti45	 0.917205	 0.296040	 0.500000 
Sr46	 0.873011	 0.372586	 0.000000 
Ti47	 0.828817	 0.449133	 0.500000 
Sr48	 0.752270	 0.404939	 0.000000 
Ti49	 0.708076	 0.481485	 0.500000 
Sr50	 0.631529	 0.437291	 0.000000 
Ti51	 0.587335	 0.513838	 0.500000 
Sr52	 0.510789	 0.469644	 0.000000 
Ti53	 0.466594	 0.546190	 0.500000 
Sr54	 0.390048	 0.501996	 0.000000 
Ti55	 0.345854	 0.578543	 0.500000 
Sr56	 0.269307	 0.534348	 0.000000 
Ti57	 0.225113	 0.610895	 0.500000 
Sr58	 0.148566	 0.566701	 0.000000 
Ti59	 0.104372	 0.643247	 0.500000 
Sr60	 0.027826	 0.599053	 0.000000 
Ti61	 0.949557	 0.416781	 0.500000 
Sr62	 0.905363	 0.493327	 0.000000 
Ti63	 0.861169	 0.569874	 0.500000 
Sr64	 0.784622	 0.525680	 0.000000 
Ti65	 0.740428	 0.602226	 0.500000 
Sr66	 0.663882	 0.558032	 0.000000 
Ti67	 0.619688	 0.634578	 0.500000 
Sr68	 0.543141	 0.590384	 0.000000 
Ti69	 0.498947	 0.666931	 0.500000 
Sr70	 0.422400	 0.622737	 0.000000 
Ti71	 0.378206	 0.699283	 0.500000 
Sr72	 0.301660	 0.655089	 0.000000 
Ti73	 0.257465	 0.731636	 0.500000 
Sr74	 0.180919	 0.687441	 0.000000 
Ti75	 0.136725	 0.763988	 0.500000 
Sr76	 0.060178	 0.719794	 0.000000 
Ti77	 0.981910	 0.537521	 0.500000 
Sr78	 0.937716	 0.614068	 0.000000 
Ti79	 0.893521	 0.690614	 0.500000 
Sr80	 0.816975	 0.646420	 0.000000 
Ti81	 0.772781	 0.722967	 0.500000 
Sr82	 0.696234	 0.678773	 0.000000 
Ti83	 0.652040	 0.755319	 0.500000 
Sr84	 0.575493	 0.711125	 0.000000 
Ti85	 0.531299	 0.787672	 0.500000 
Sr86	 0.454753	 0.743477	 0.000000 
Ti87	 0.410559	 0.820024	 0.500000 
Sr88	 0.334012	 0.775830	 0.000000 
Ti89	 0.289818	 0.852376	 0.500000 
Sr90	 0.213271	 0.808182	 0.000000 
Ti91	 0.169077	 0.884729	 0.500000 
Sr92	 0.092531	 0.840535	 0.000000 
Sr93	 0.970068	 0.734809	 0.000000 
Ti94	 0.925874	 0.811355	 0.500000 
Sr95	 0.849327	 0.767161	 0.000000 
Ti96	 0.805133	 0.843708	 0.500000 
Sr97	 0.728587	 0.799513	 0.000000 
Ti98	 0.684392	 0.876060	 0.500000 
Sr99	 0.607846	 0.831866	 0.000000 
Ti100	 0.563652	 0.908412	 0.500000 
Sr101	 0.487105	 0.864218	 0.000000 
Ti102	 0.442911	 0.940765	 0.500000 
Sr103	 0.366364	 0.896571	 0.000000 
Ti104	 0.322170	 0.973117	 0.500000 
Sr105	 0.245624	 0.928923	 0.000000 
Sr106	 0.124883	 0.961275	 0.000000 
Sr107	 0.881680	 0.887902	 0.000000 
Sr108	 0.760939	 0.920254	 0.000000 
Ti109	 0.457926	 0.030875	 0.500000 
Sr110	 0.640198	 0.952606	 0.000000 
Ti111	 0.337185	 0.063227	 0.500000 
Sr112	 0.519457	 0.984959	 0.000000 
Ti113	 0.216444	 0.095580	 0.500000 
Ti114	 0.095704	 0.127932	 0.500000 
#                 ---end-of-data-block---
