data_STO [001]8x8x1
_cell_length_a               31.240000
_cell_length_b               31.240000
_cell_length_c               3.905000
_cell_angle_alpha          90.000000
_cell_angle_beta           90.000000
_cell_angle_gamma          90.000000
_symmetry_cell_setting          Triclinic
_symmetry_space_group_name_H-M 'P 1' 
loop_
_atom_site_label
_atom_site_fract_x
_atom_site_fract_y
_atom_site_fract_z
Ti1	 0.809912	 0.003195	 0.500000 
Ti2	 0.689171	 0.035547	 0.500000 
Ti3	 0.568430	 0.067900	 0.500000 
Sr4	 0.491884	 0.023706	 0.000000 
Ti5	 0.447689	 0.100252	 0.500000 
Sr6	 0.371143	 0.056058	 0.000000 
Ti7	 0.326949	 0.132604	 0.500000 
Sr8	 0.250402	 0.088410	 0.000000 
Ti9	 0.206208	 0.164957	 0.500000 
Sr10	 0.129661	 0.120763	 0.000000 
Ti11	 0.085467	 0.197309	 0.500000 
Sr12	 0.008921	 0.153115	 0.000000 
Sr13	 0.886458	 0.047389	 0.000000 
Ti14	 0.842264	 0.123936	 0.500000 
Sr15	 0.765717	 0.079742	 0.000000 
Ti16	 0.721523	 0.156288	 0.500000 
Sr17	 0.644977	 0.112094	 0.000000 
Ti18	 0.600783	 0.188640	 0.500000 
Sr19	 0.524236	 0.144446	 0.000000 
Ti20	 0.480042	 0.220993	 0.500000 
Sr21	 0.403495	 0.176799	 0.000000 
Ti22	 0.359301	 0.253345	 0.500000 
Sr23	 0.282754	 0.209151	 0.000000 
Ti24	 0.238560	 0.285698	 0.500000 
Sr25	 0.162014	 0.241503	 0.000000 
Ti26	 0.117820	 0.318050	 0.500000 
Sr27	 0.041273	 0.273856	 0.000000 
Sr28	 0.918811	 0.168130	 0.000000 
Ti29	 0.874616	 0.244676	 0.500000 
Sr30	 0.798070	 0.200482	 0.000000 
Ti31	 0.753876	 0.277029	 0.500000 
Sr32	 0.677329	 0.232835	 0.000000 
Ti33	 0.633135	 0.309381	 0.500000 
Sr34	 0.556588	 0.265187	 0.000000 
Ti35	 0.512394	 0.341734	 0.500000 
Sr36	 0.435848	 0.297539	 0.000000 
Ti37	 0.391653	 0.374086	 0.500000 
Sr38	 0.315107	 0.329892	 0.000000 
Ti39	 0.270913	 0.406438	 0.500000 
Sr40	 0.194366	 0.362244	 0.000000 
Ti41	 0.150172	 0.438791	 0.500000 
Sr42	 0.073625	 0.394597	 0.000000 
Ti43	 0.029431	 0.471143	 0.500000 
Sr44	 0.951163	 0.288871	 0.000000 
Ti45	 0.906969	 0.365417	 0.500000 
Sr46	 0.830422	 0.321223	 0.000000 
Ti47	 0.786228	 0.397770	 0.500000 
Sr48	 0.709681	 0.353575	 0.000000 
Ti49	 0.665487	 0.430122	 0.500000 
Sr50	 0.588941	 0.385928	 0.000000 
Ti51	 0.544747	 0.462474	 0.500000 
Sr52	 0.468200	 0.418280	 0.000000 
Ti53	 0.424006	 0.494827	 0.500000 
Sr54	 0.347459	 0.450632	 0.000000 
Ti55	 0.303265	 0.527179	 0.500000 
Sr56	 0.226719	 0.482985	 0.000000 
Ti57	 0.182524	 0.559531	 0.500000 
Sr58	 0.105978	 0.515337	 0.000000 
Ti59	 0.061784	 0.591884	 0.500000 
Sr60	 0.983515	 0.409611	 0.000000 
Ti61	 0.939321	 0.486158	 0.500000 
Sr62	 0.862775	 0.441964	 0.000000 
Ti63	 0.818580	 0.518510	 0.500000 
Sr64	 0.742034	 0.474316	 0.000000 
Ti65	 0.697840	 0.550863	 0.500000 
Sr66	 0.621293	 0.506668	 0.000000 
Ti67	 0.577099	 0.583215	 0.500000 
Sr68	 0.500552	 0.539021	 0.000000 
Ti69	 0.456358	 0.615567	 0.500000 
Sr70	 0.379812	 0.571373	 0.000000 
Ti71	 0.335617	 0.647920	 0.500000 
Sr72	 0.259071	 0.603726	 0.000000 
Ti73	 0.214877	 0.680272	 0.500000 
Sr74	 0.138330	 0.636078	 0.000000 
Ti75	 0.094136	 0.712625	 0.500000 
Ti76	 0.971673	 0.606899	 0.500000 
Sr77	 0.895127	 0.562704	 0.000000 
Ti78	 0.850933	 0.639251	 0.500000 
Sr79	 0.774386	 0.595057	 0.000000 
Ti80	 0.730192	 0.671603	 0.500000 
Sr81	 0.653645	 0.627409	 0.000000 
Ti82	 0.609451	 0.703956	 0.500000 
Sr83	 0.532905	 0.659762	 0.000000 
Ti84	 0.488711	 0.736308	 0.500000 
Sr85	 0.412164	 0.692114	 0.000000 
Ti86	 0.367970	 0.768660	 0.500000 
Sr87	 0.291423	 0.724466	 0.000000 
Ti88	 0.247229	 0.801013	 0.500000 
Sr89	 0.170683	 0.756819	 0.000000 
Ti90	 0.126488	 0.833365	 0.500000 
Sr91	 0.927479	 0.683445	 0.000000 
Ti92	 0.883285	 0.759992	 0.500000 
Sr93	 0.806739	 0.715798	 0.000000 
Ti94	 0.762544	 0.792344	 0.500000 
Sr95	 0.685998	 0.748150	 0.000000 
Ti96	 0.641804	 0.824696	 0.500000 
Sr97	 0.565257	 0.780502	 0.000000 
Ti98	 0.521063	 0.857049	 0.500000 
Sr99	 0.444516	 0.812855	 0.000000 
Ti100	 0.400322	 0.889401	 0.500000 
Sr101	 0.323776	 0.845207	 0.000000 
Ti102	 0.279581	 0.921754	 0.500000 
Sr103	 0.203035	 0.877559	 0.000000 
Ti104	 0.158841	 0.954106	 0.500000 
Sr105	 0.959832	 0.804186	 0.000000 
Ti106	 0.915638	 0.880732	 0.500000 
Sr107	 0.839091	 0.836538	 0.000000 
Ti108	 0.794897	 0.913085	 0.500000 
Sr109	 0.718350	 0.868891	 0.000000 
Ti110	 0.674156	 0.945437	 0.500000 
Sr111	 0.597610	 0.901243	 0.000000 
Ti112	 0.553415	 0.977790	 0.500000 
Sr113	 0.476869	 0.933595	 0.000000 
Sr114	 0.356128	 0.965948	 0.000000 
Sr115	 0.235387	 0.998300	 0.000000 
#                 ---end-of-data-block---
