data_Pt structure along [001] nx 5 ny 8 nz 1
_cell_length_a               31.240000
_cell_length_b               31.240000
_cell_length_c               5.543717
_cell_angle_alpha          90.000000
_cell_angle_beta           90.000000
_cell_angle_gamma          90.000000
_symmetry_cell_setting          Triclinic
_symmetry_space_group_name_H-M 'P 1' 
loop_
_atom_site_label
_atom_site_fract_x
_atom_site_fract_y
_atom_site_fract_z
Ti1	 0.311341	 0.030048	 0.000000 
Ti2	 0.396717	 0.052924	 0.500000 
Ti3	 0.278988	 0.150789	 0.000000 
Sr4	 0.380541	 0.113295	 0.000000 
Ti5	 0.364365	 0.173665	 0.500000 
Sr6	 0.295165	 0.090418	 0.500000 
Ti7	 0.246636	 0.271529	 0.000000 
Sr8	 0.348189	 0.234035	 0.000000 
Ti9	 0.332013	 0.294406	 0.500000 
Sr10	 0.262812	 0.211159	 0.500000 
Ti11	 0.214284	 0.392270	 0.000000 
Sr12	 0.315836	 0.354776	 0.000000 
Ti13	 0.299660	 0.415147	 0.500000 
Sr14	 0.230460	 0.331900	 0.500000 
Ti15	 0.181931	 0.513011	 0.000000 
Sr16	 0.283484	 0.475517	 0.000000 
Ti17	 0.267308	 0.535887	 0.500000 
Sr18	 0.198107	 0.452640	 0.500000 
Ti19	 0.149579	 0.633751	 0.000000 
Sr20	 0.251132	 0.596258	 0.000000 
Ti21	 0.234955	 0.656628	 0.500000 
Sr22	 0.165755	 0.573381	 0.500000 
Ti23	 0.117226	 0.754492	 0.000000 
Sr24	 0.218779	 0.716998	 0.000000 
Ti25	 0.202603	 0.777369	 0.500000 
Sr26	 0.133403	 0.694122	 0.500000 
Ti27	 0.084874	 0.875233	 0.000000 
Sr28	 0.186427	 0.837739	 0.000000 
Ti29	 0.170251	 0.898109	 0.500000 
Sr30	 0.101050	 0.814863	 0.500000 
Ti31	 0.482094	 0.075801	 0.000000 
Sr32	 0.583647	 0.038307	 0.000000 
Ti33	 0.567471	 0.098678	 0.500000 
Sr34	 0.498270	 0.015431	 0.500000 
Ti35	 0.449742	 0.196542	 0.000000 
Sr36	 0.551294	 0.159048	 0.000000 
Ti37	 0.535118	 0.219418	 0.500000 
Sr38	 0.465918	 0.136171	 0.500000 
Ti39	 0.417389	 0.317282	 0.000000 
Sr40	 0.518942	 0.279789	 0.000000 
Ti41	 0.502766	 0.340159	 0.500000 
Sr42	 0.433565	 0.256912	 0.500000 
Ti43	 0.385037	 0.438023	 0.000000 
Sr44	 0.486590	 0.400529	 0.000000 
Ti45	 0.470413	 0.460900	 0.500000 
Sr46	 0.401213	 0.377653	 0.500000 
Ti47	 0.352684	 0.558764	 0.000000 
Sr48	 0.454237	 0.521270	 0.000000 
Ti49	 0.438061	 0.581640	 0.500000 
Sr50	 0.368861	 0.498394	 0.500000 
Ti51	 0.320332	 0.679505	 0.000000 
Sr52	 0.421885	 0.642011	 0.000000 
Ti53	 0.405709	 0.702381	 0.500000 
Sr54	 0.336508	 0.619134	 0.500000 
Ti55	 0.287980	 0.800245	 0.000000 
Sr56	 0.389532	 0.762752	 0.000000 
Ti57	 0.373356	 0.823122	 0.500000 
Sr58	 0.304156	 0.739875	 0.500000 
Ti59	 0.255627	 0.920986	 0.000000 
Sr60	 0.357180	 0.883492	 0.000000 
Ti61	 0.341004	 0.943863	 0.500000 
Sr62	 0.271803	 0.860616	 0.500000 
Ti63	 0.652847	 0.121554	 0.000000 
Sr64	 0.754400	 0.084060	 0.000000 
Ti65	 0.738224	 0.144431	 0.500000 
Sr66	 0.669023	 0.061184	 0.500000 
Ti67	 0.620495	 0.242295	 0.000000 
Sr68	 0.722048	 0.204801	 0.000000 
Ti69	 0.705871	 0.265171	 0.500000 
Sr70	 0.636671	 0.181925	 0.500000 
Ti71	 0.588142	 0.363036	 0.000000 
Sr72	 0.689695	 0.325542	 0.000000 
Ti73	 0.673519	 0.385912	 0.500000 
Sr74	 0.604319	 0.302665	 0.500000 
Ti75	 0.555790	 0.483776	 0.000000 
Sr76	 0.657343	 0.446283	 0.000000 
Ti77	 0.641167	 0.506653	 0.500000 
Sr78	 0.571966	 0.423406	 0.500000 
Ti79	 0.523438	 0.604517	 0.000000 
Sr80	 0.624990	 0.567023	 0.000000 
Ti81	 0.608814	 0.627394	 0.500000 
Sr82	 0.539614	 0.544147	 0.500000 
Ti83	 0.491085	 0.725258	 0.000000 
Sr84	 0.592638	 0.687764	 0.000000 
Ti85	 0.576462	 0.748134	 0.500000 
Sr86	 0.507261	 0.664887	 0.500000 
Ti87	 0.458733	 0.845999	 0.000000 
Sr88	 0.560286	 0.808505	 0.000000 
Ti89	 0.544109	 0.868875	 0.500000 
Sr90	 0.474909	 0.785628	 0.500000 
Ti91	 0.426380	 0.966739	 0.000000 
Sr92	 0.527933	 0.929245	 0.000000 
Ti93	 0.511757	 0.989616	 0.500000 
Sr94	 0.442557	 0.906369	 0.500000 
Ti95	 0.823600	 0.167307	 0.000000 
Sr96	 0.925153	 0.129814	 0.000000 
Ti97	 0.908977	 0.190184	 0.500000 
Sr98	 0.839776	 0.106937	 0.500000 
Ti99	 0.791248	 0.288048	 0.000000 
Sr100	 0.892801	 0.250554	 0.000000 
Ti101	 0.876625	 0.310925	 0.500000 
Sr102	 0.807424	 0.227678	 0.500000 
Ti103	 0.758896	 0.408789	 0.000000 
Sr104	 0.860448	 0.371295	 0.000000 
Ti105	 0.844272	 0.431665	 0.500000 
Sr106	 0.775072	 0.348418	 0.500000 
Ti107	 0.726543	 0.529530	 0.000000 
Sr108	 0.828096	 0.492036	 0.000000 
Ti109	 0.811920	 0.552406	 0.500000 
Sr110	 0.742719	 0.469159	 0.500000 
Ti111	 0.694191	 0.650270	 0.000000 
Sr112	 0.795744	 0.612776	 0.000000 
Ti113	 0.779567	 0.673147	 0.500000 
Sr114	 0.710367	 0.589900	 0.500000 
Ti115	 0.661838	 0.771011	 0.000000 
Sr116	 0.763391	 0.733517	 0.000000 
Ti117	 0.747215	 0.793888	 0.500000 
Sr118	 0.678015	 0.710641	 0.500000 
Ti119	 0.629486	 0.891752	 0.000000 
Sr120	 0.731039	 0.854258	 0.000000 
Ti121	 0.714863	 0.914628	 0.500000 
Sr122	 0.645662	 0.831381	 0.500000 
Sr123	 0.698686	 0.974999	 0.000000 
Sr124	 0.613310	 0.952122	 0.500000 
Ti125	 0.994353	 0.213060	 0.000000 
Ti126	 0.225964	 0.007171	 0.500000 
Ti127	 0.962001	 0.333801	 0.000000 
Sr128	 0.209788	 0.067542	 0.000000 
Ti129	 0.193612	 0.127912	 0.500000 
Sr130	 0.978177	 0.273431	 0.500000 
Ti131	 0.929649	 0.454542	 0.000000 
Sr132	 0.177436	 0.188282	 0.000000 
Ti133	 0.161259	 0.248653	 0.500000 
Sr134	 0.945825	 0.394172	 0.500000 
Ti135	 0.897296	 0.575283	 0.000000 
Sr136	 0.145083	 0.309023	 0.000000 
Ti137	 0.128907	 0.369393	 0.500000 
Sr138	 0.913473	 0.514912	 0.500000 
Ti139	 0.864944	 0.696023	 0.000000 
Sr140	 0.112731	 0.429764	 0.000000 
Ti141	 0.096555	 0.490134	 0.500000 
Sr142	 0.881120	 0.635653	 0.500000 
Ti143	 0.832592	 0.816764	 0.000000 
Sr144	 0.080378	 0.550504	 0.000000 
Ti145	 0.064202	 0.610875	 0.500000 
Sr146	 0.848768	 0.756394	 0.500000 
Ti147	 0.800239	 0.937505	 0.000000 
Sr148	 0.048026	 0.671245	 0.000000 
Ti149	 0.031850	 0.731616	 0.500000 
Sr150	 0.816415	 0.877135	 0.500000 
Sr151	 0.015674	 0.791986	 0.000000 
Sr152	 0.784063	 0.997875	 0.500000 
#                 ---end-of-data-block---
