data_Pt structure along [001] nx 5 ny 8 nz 1
_cell_length_a               31.240000
_cell_length_b               31.240000
_cell_length_c               5.543717
_cell_angle_alpha          90.000000
_cell_angle_beta           90.000000
_cell_angle_gamma          90.000000
_symmetry_cell_setting          Triclinic
_symmetry_space_group_name_H-M 'P 1' 
loop_
_atom_site_label
_atom_site_fract_x
_atom_site_fract_y
_atom_site_fract_z
Ti1	 0.260135	 0.034505	 0.000000 
Sr2	 0.367932	 0.024573	 0.000000 
Ti3	 0.336682	 0.078700	 0.500000 
Ti4	 0.197635	 0.142759	 0.000000 
Sr5	 0.305432	 0.132826	 0.000000 
Ti6	 0.274182	 0.186953	 0.500000 
Sr7	 0.228885	 0.088632	 0.500000 
Ti8	 0.135135	 0.251012	 0.000000 
Sr9	 0.242932	 0.241079	 0.000000 
Ti10	 0.211682	 0.295206	 0.500000 
Sr11	 0.166385	 0.196885	 0.500000 
Ti12	 0.072635	 0.359265	 0.000000 
Sr13	 0.180432	 0.349333	 0.000000 
Ti14	 0.149182	 0.403459	 0.500000 
Sr15	 0.103885	 0.305138	 0.500000 
Ti16	 0.010135	 0.467518	 0.000000 
Sr17	 0.117932	 0.457586	 0.000000 
Ti18	 0.086682	 0.511712	 0.500000 
Sr19	 0.041385	 0.413392	 0.500000 
Sr20	 0.055432	 0.565839	 0.000000 
Ti21	 0.024182	 0.619965	 0.500000 
Ti22	 0.475728	 0.014641	 0.000000 
Sr23	 0.583525	 0.004708	 0.000000 
Ti24	 0.552275	 0.058835	 0.500000 
Ti25	 0.413228	 0.122894	 0.000000 
Sr26	 0.521025	 0.112961	 0.000000 
Ti27	 0.489775	 0.167088	 0.500000 
Sr28	 0.444478	 0.068767	 0.500000 
Ti29	 0.350728	 0.231147	 0.000000 
Sr30	 0.458525	 0.221215	 0.000000 
Ti31	 0.427275	 0.275341	 0.500000 
Sr32	 0.381978	 0.177020	 0.500000 
Ti33	 0.288228	 0.339400	 0.000000 
Sr34	 0.396025	 0.329468	 0.000000 
Ti35	 0.364775	 0.383594	 0.500000 
Sr36	 0.319478	 0.285274	 0.500000 
Ti37	 0.225728	 0.447653	 0.000000 
Sr38	 0.333525	 0.437721	 0.000000 
Ti39	 0.302275	 0.491847	 0.500000 
Sr40	 0.256978	 0.393527	 0.500000 
Ti41	 0.163228	 0.555906	 0.000000 
Sr42	 0.271025	 0.545974	 0.000000 
Ti43	 0.239775	 0.600101	 0.500000 
Sr44	 0.194478	 0.501780	 0.500000 
Ti45	 0.100728	 0.664160	 0.000000 
Sr46	 0.208525	 0.654227	 0.000000 
Ti47	 0.177275	 0.708354	 0.500000 
Sr48	 0.131978	 0.610033	 0.500000 
Ti49	 0.038228	 0.772413	 0.000000 
Sr50	 0.146025	 0.762480	 0.000000 
Ti51	 0.114775	 0.816607	 0.500000 
Sr52	 0.069478	 0.718286	 0.500000 
Ti53	 0.628821	 0.103029	 0.000000 
Sr54	 0.736618	 0.093097	 0.000000 
Ti55	 0.705368	 0.147223	 0.500000 
Sr56	 0.660071	 0.048902	 0.500000 
Ti57	 0.566321	 0.211282	 0.000000 
Sr58	 0.674118	 0.201350	 0.000000 
Ti59	 0.642868	 0.255476	 0.500000 
Sr60	 0.597571	 0.157156	 0.500000 
Ti61	 0.503821	 0.319535	 0.000000 
Sr62	 0.611618	 0.309603	 0.000000 
Ti63	 0.580368	 0.363729	 0.500000 
Sr64	 0.535071	 0.265409	 0.500000 
Ti65	 0.441321	 0.427788	 0.000000 
Sr66	 0.549118	 0.417856	 0.000000 
Ti67	 0.517868	 0.471983	 0.500000 
Sr68	 0.472571	 0.373662	 0.500000 
Ti69	 0.378821	 0.536042	 0.000000 
Sr70	 0.486618	 0.526109	 0.000000 
Ti71	 0.455368	 0.580236	 0.500000 
Sr72	 0.410071	 0.481915	 0.500000 
Ti73	 0.316321	 0.644295	 0.000000 
Sr74	 0.424118	 0.634362	 0.000000 
Ti75	 0.392868	 0.688489	 0.500000 
Sr76	 0.347571	 0.590168	 0.500000 
Ti77	 0.253821	 0.752548	 0.000000 
Sr78	 0.361618	 0.742616	 0.000000 
Ti79	 0.330368	 0.796742	 0.500000 
Sr80	 0.285071	 0.698421	 0.500000 
Ti81	 0.191321	 0.860801	 0.000000 
Sr82	 0.299118	 0.850869	 0.000000 
Ti83	 0.267868	 0.904995	 0.500000 
Sr84	 0.222571	 0.806675	 0.500000 
Ti85	 0.781914	 0.191417	 0.000000 
Sr86	 0.889711	 0.181485	 0.000000 
Ti87	 0.858461	 0.235611	 0.500000 
Sr88	 0.813164	 0.137291	 0.500000 
Ti89	 0.719414	 0.299670	 0.000000 
Sr90	 0.827211	 0.289738	 0.000000 
Ti91	 0.795961	 0.343865	 0.500000 
Sr92	 0.750664	 0.245544	 0.500000 
Ti93	 0.656914	 0.407924	 0.000000 
Sr94	 0.764711	 0.397991	 0.000000 
Ti95	 0.733461	 0.452118	 0.500000 
Sr96	 0.688164	 0.353797	 0.500000 
Ti97	 0.594414	 0.516177	 0.000000 
Sr98	 0.702211	 0.506244	 0.000000 
Ti99	 0.670961	 0.560371	 0.500000 
Sr100	 0.625664	 0.462050	 0.500000 
Ti101	 0.531914	 0.624430	 0.000000 
Sr102	 0.639711	 0.614498	 0.000000 
Ti103	 0.608461	 0.668624	 0.500000 
Sr104	 0.563164	 0.570303	 0.500000 
Ti105	 0.469414	 0.732683	 0.000000 
Sr106	 0.577211	 0.722751	 0.000000 
Ti107	 0.545961	 0.776877	 0.500000 
Sr108	 0.500664	 0.678557	 0.500000 
Ti109	 0.406914	 0.840936	 0.000000 
Sr110	 0.514711	 0.831004	 0.000000 
Ti111	 0.483461	 0.885131	 0.500000 
Sr112	 0.438164	 0.786810	 0.500000 
Ti113	 0.344414	 0.949190	 0.000000 
Sr114	 0.452211	 0.939257	 0.000000 
Ti115	 0.420961	 0.993384	 0.500000 
Sr116	 0.375664	 0.895063	 0.500000 
Ti117	 0.935008	 0.279806	 0.000000 
Sr118	 0.966258	 0.225679	 0.500000 
Ti119	 0.872508	 0.388059	 0.000000 
Sr120	 0.980304	 0.378126	 0.000000 
Ti121	 0.949054	 0.432253	 0.500000 
Sr122	 0.903758	 0.333932	 0.500000 
Ti123	 0.810008	 0.496312	 0.000000 
Sr124	 0.917804	 0.486380	 0.000000 
Ti125	 0.886554	 0.540506	 0.500000 
Sr126	 0.841258	 0.442185	 0.500000 
Ti127	 0.747508	 0.604565	 0.000000 
Sr128	 0.855304	 0.594633	 0.000000 
Ti129	 0.824054	 0.648759	 0.500000 
Sr130	 0.778758	 0.550439	 0.500000 
Ti131	 0.685008	 0.712818	 0.000000 
Sr132	 0.792804	 0.702886	 0.000000 
Ti133	 0.761554	 0.757013	 0.500000 
Sr134	 0.716258	 0.658692	 0.500000 
Ti135	 0.622508	 0.821072	 0.000000 
Sr136	 0.730304	 0.811139	 0.000000 
Ti137	 0.699054	 0.865266	 0.500000 
Sr138	 0.653758	 0.766945	 0.500000 
Ti139	 0.560008	 0.929325	 0.000000 
Sr140	 0.667804	 0.919392	 0.000000 
Ti141	 0.636554	 0.973519	 0.500000 
Sr142	 0.591258	 0.875198	 0.500000 
Sr143	 0.528758	 0.983451	 0.500000 
#                 ---end-of-data-block---
