data_Pt structure along [001] nx 5 ny 8 nz 1
_cell_length_a               31.240000
_cell_length_b               31.240000
_cell_length_c               5.543717
_cell_angle_alpha          90.000000
_cell_angle_beta           90.000000
_cell_angle_gamma          90.000000
_symmetry_cell_setting          Triclinic
_symmetry_space_group_name_H-M 'P 1' 
loop_
_atom_site_label
_atom_site_fract_x
_atom_site_fract_y
_atom_site_fract_z
Ti1	 0.507927	 0.018895	 0.500000 
Ti2	 0.368881	 0.082954	 0.000000 
Sr3	 0.476677	 0.073021	 0.000000 
Ti4	 0.445427	 0.127148	 0.500000 
Sr5	 0.400131	 0.028827	 0.500000 
Ti6	 0.306381	 0.191207	 0.000000 
Sr7	 0.414177	 0.181275	 0.000000 
Ti8	 0.382927	 0.235401	 0.500000 
Sr9	 0.337631	 0.137080	 0.500000 
Ti10	 0.243881	 0.299460	 0.000000 
Sr11	 0.351677	 0.289528	 0.000000 
Ti12	 0.320427	 0.343654	 0.500000 
Sr13	 0.275131	 0.245334	 0.500000 
Ti14	 0.181381	 0.407713	 0.000000 
Sr15	 0.289177	 0.397781	 0.000000 
Ti16	 0.257927	 0.451908	 0.500000 
Sr17	 0.212631	 0.353587	 0.500000 
Ti18	 0.118881	 0.515967	 0.000000 
Sr19	 0.226677	 0.506034	 0.000000 
Ti20	 0.195427	 0.560161	 0.500000 
Sr21	 0.150131	 0.461840	 0.500000 
Ti22	 0.056381	 0.624220	 0.000000 
Sr23	 0.164177	 0.614287	 0.000000 
Ti24	 0.132927	 0.668414	 0.500000 
Sr25	 0.087631	 0.570093	 0.500000 
Sr26	 0.101677	 0.722541	 0.000000 
Ti27	 0.070427	 0.776667	 0.500000 
Sr28	 0.025131	 0.678346	 0.500000 
Ti29	 0.584474	 0.063089	 0.000000 
Sr30	 0.692270	 0.053157	 0.000000 
Ti31	 0.661020	 0.107283	 0.500000 
Sr32	 0.615724	 0.008962	 0.500000 
Ti33	 0.521974	 0.171342	 0.000000 
Sr34	 0.629770	 0.161410	 0.000000 
Ti35	 0.598520	 0.215536	 0.500000 
Sr36	 0.553224	 0.117216	 0.500000 
Ti37	 0.459474	 0.279595	 0.000000 
Sr38	 0.567270	 0.269663	 0.000000 
Ti39	 0.536020	 0.323790	 0.500000 
Sr40	 0.490724	 0.225469	 0.500000 
Ti41	 0.396974	 0.387849	 0.000000 
Sr42	 0.504770	 0.377916	 0.000000 
Ti43	 0.473520	 0.432043	 0.500000 
Sr44	 0.428224	 0.333722	 0.500000 
Ti45	 0.334474	 0.496102	 0.000000 
Sr46	 0.442270	 0.486169	 0.000000 
Ti47	 0.411020	 0.540296	 0.500000 
Sr48	 0.365724	 0.441975	 0.500000 
Ti49	 0.271974	 0.604355	 0.000000 
Sr50	 0.379770	 0.594423	 0.000000 
Ti51	 0.348520	 0.648549	 0.500000 
Sr52	 0.303224	 0.550228	 0.500000 
Ti53	 0.209474	 0.712608	 0.000000 
Sr54	 0.317270	 0.702676	 0.000000 
Ti55	 0.286020	 0.756802	 0.500000 
Sr56	 0.240724	 0.658482	 0.500000 
Ti57	 0.146974	 0.820861	 0.000000 
Sr58	 0.254770	 0.810929	 0.000000 
Ti59	 0.223520	 0.865055	 0.500000 
Sr60	 0.178224	 0.766735	 0.500000 
Ti61	 0.737567	 0.151477	 0.000000 
Sr62	 0.845363	 0.141545	 0.000000 
Ti63	 0.814113	 0.195672	 0.500000 
Sr64	 0.768817	 0.097351	 0.500000 
Ti65	 0.675067	 0.259731	 0.000000 
Sr66	 0.782863	 0.249798	 0.000000 
Ti67	 0.751613	 0.303925	 0.500000 
Sr68	 0.706317	 0.205604	 0.500000 
Ti69	 0.612567	 0.367984	 0.000000 
Sr70	 0.720363	 0.358051	 0.000000 
Ti71	 0.689113	 0.412178	 0.500000 
Sr72	 0.643817	 0.313857	 0.500000 
Ti73	 0.550067	 0.476237	 0.000000 
Sr74	 0.657863	 0.466305	 0.000000 
Ti75	 0.626613	 0.520431	 0.500000 
Sr76	 0.581317	 0.422110	 0.500000 
Ti77	 0.487567	 0.584490	 0.000000 
Sr78	 0.595363	 0.574558	 0.000000 
Ti79	 0.564113	 0.628684	 0.500000 
Sr80	 0.518817	 0.530364	 0.500000 
Ti81	 0.425067	 0.692743	 0.000000 
Sr82	 0.532863	 0.682811	 0.000000 
Ti83	 0.501613	 0.736937	 0.500000 
Sr84	 0.456317	 0.638617	 0.500000 
Ti85	 0.362567	 0.800996	 0.000000 
Sr86	 0.470363	 0.791064	 0.000000 
Ti87	 0.439113	 0.845191	 0.500000 
Sr88	 0.393817	 0.746870	 0.500000 
Ti89	 0.300067	 0.909250	 0.000000 
Sr90	 0.407863	 0.899317	 0.000000 
Ti91	 0.376613	 0.953444	 0.500000 
Sr92	 0.331317	 0.855123	 0.500000 
Ti93	 0.890660	 0.239866	 0.000000 
Sr94	 0.998457	 0.229933	 0.000000 
Ti95	 0.967207	 0.284060	 0.500000 
Sr96	 0.921910	 0.185739	 0.500000 
Ti97	 0.828160	 0.348119	 0.000000 
Sr98	 0.935957	 0.338187	 0.000000 
Ti99	 0.904707	 0.392313	 0.500000 
Sr100	 0.859410	 0.293992	 0.500000 
Ti101	 0.765660	 0.456372	 0.000000 
Sr102	 0.873457	 0.446440	 0.000000 
Ti103	 0.842207	 0.500566	 0.500000 
Sr104	 0.796910	 0.402246	 0.500000 
Ti105	 0.703160	 0.564625	 0.000000 
Sr106	 0.810957	 0.554693	 0.000000 
Ti107	 0.779707	 0.608819	 0.500000 
Sr108	 0.734410	 0.510499	 0.500000 
Ti109	 0.640660	 0.672878	 0.000000 
Sr110	 0.748457	 0.662946	 0.000000 
Ti111	 0.717207	 0.717073	 0.500000 
Sr112	 0.671910	 0.618752	 0.500000 
Ti113	 0.578160	 0.781132	 0.000000 
Sr114	 0.685957	 0.771199	 0.000000 
Ti115	 0.654707	 0.825326	 0.500000 
Sr116	 0.609410	 0.727005	 0.500000 
Ti117	 0.515660	 0.889385	 0.000000 
Sr118	 0.623457	 0.879452	 0.000000 
Ti119	 0.592207	 0.933579	 0.500000 
Sr120	 0.546910	 0.835258	 0.500000 
Ti121	 0.453160	 0.997638	 0.000000 
Sr122	 0.560957	 0.987706	 0.000000 
Sr123	 0.484410	 0.943511	 0.500000 
Ti124	 0.981253	 0.436507	 0.000000 
Ti125	 0.292334	 0.038760	 0.500000 
Ti126	 0.918753	 0.544760	 0.000000 
Sr127	 0.261084	 0.092886	 0.000000 
Ti128	 0.229834	 0.147013	 0.500000 
Sr129	 0.950003	 0.490634	 0.500000 
Ti130	 0.856253	 0.653014	 0.000000 
Sr131	 0.198584	 0.201139	 0.000000 
Ti132	 0.167334	 0.255266	 0.500000 
Sr133	 0.887503	 0.598887	 0.500000 
Ti134	 0.793753	 0.761267	 0.000000 
Sr135	 0.136084	 0.309393	 0.000000 
Ti136	 0.104834	 0.363519	 0.500000 
Sr137	 0.825003	 0.707140	 0.500000 
Ti138	 0.731253	 0.869520	 0.000000 
Sr139	 0.073584	 0.417646	 0.000000 
Ti140	 0.042334	 0.471772	 0.500000 
Sr141	 0.762503	 0.815393	 0.500000 
Ti142	 0.668753	 0.977773	 0.000000 
Sr143	 0.011084	 0.525899	 0.000000 
Sr144	 0.700003	 0.923647	 0.500000 
#                 ---end-of-data-block---
