data_Pt structure along [001] nx 5 ny 8 nz 1
_cell_length_a               31.240000
_cell_length_b               31.240000
_cell_length_c               5.543717
_cell_angle_alpha          90.000000
_cell_angle_beta           90.000000
_cell_angle_gamma          90.000000
_symmetry_cell_setting          Triclinic
_symmetry_space_group_name_H-M 'P 1' 
loop_
_atom_site_label
_atom_site_fract_x
_atom_site_fract_y
_atom_site_fract_z
Ti1	 0.441976	 0.047751	 0.000000 
Sr2	 0.549773	 0.037819	 0.000000 
Ti3	 0.518523	 0.091945	 0.500000 
Ti4	 0.379476	 0.156004	 0.000000 
Sr5	 0.487273	 0.146072	 0.000000 
Ti6	 0.456023	 0.200198	 0.500000 
Sr7	 0.410726	 0.101878	 0.500000 
Ti8	 0.316976	 0.264257	 0.000000 
Sr9	 0.424773	 0.254325	 0.000000 
Ti10	 0.393523	 0.308452	 0.500000 
Sr11	 0.348226	 0.210131	 0.500000 
Ti12	 0.254476	 0.372511	 0.000000 
Sr13	 0.362273	 0.362578	 0.000000 
Ti14	 0.331023	 0.416705	 0.500000 
Sr15	 0.285726	 0.318384	 0.500000 
Ti16	 0.191976	 0.480764	 0.000000 
Sr17	 0.299773	 0.470831	 0.000000 
Ti18	 0.268523	 0.524958	 0.500000 
Sr19	 0.223226	 0.426637	 0.500000 
Ti20	 0.129476	 0.589017	 0.000000 
Sr21	 0.237273	 0.579085	 0.000000 
Ti22	 0.206023	 0.633211	 0.500000 
Sr23	 0.160726	 0.534890	 0.500000 
Ti24	 0.066976	 0.697270	 0.000000 
Sr25	 0.174773	 0.687338	 0.000000 
Ti26	 0.143523	 0.741464	 0.500000 
Sr27	 0.098226	 0.643144	 0.500000 
Sr28	 0.112273	 0.795591	 0.000000 
Sr29	 0.035726	 0.751397	 0.500000 
Ti30	 0.595070	 0.136139	 0.000000 
Sr31	 0.702866	 0.126207	 0.000000 
Ti32	 0.671616	 0.180334	 0.500000 
Sr33	 0.626320	 0.082013	 0.500000 
Ti34	 0.532570	 0.244393	 0.000000 
Sr35	 0.640366	 0.234460	 0.000000 
Ti36	 0.609116	 0.288587	 0.500000 
Sr37	 0.563820	 0.190266	 0.500000 
Ti38	 0.470070	 0.352646	 0.000000 
Sr39	 0.577866	 0.342713	 0.000000 
Ti40	 0.546616	 0.396840	 0.500000 
Sr41	 0.501320	 0.298519	 0.500000 
Ti42	 0.407570	 0.460899	 0.000000 
Sr43	 0.515366	 0.450967	 0.000000 
Ti44	 0.484116	 0.505093	 0.500000 
Sr45	 0.438820	 0.406772	 0.500000 
Ti46	 0.345070	 0.569152	 0.000000 
Sr47	 0.452866	 0.559220	 0.000000 
Ti48	 0.421616	 0.613346	 0.500000 
Sr49	 0.376320	 0.515026	 0.500000 
Ti50	 0.282570	 0.677405	 0.000000 
Sr51	 0.390366	 0.667473	 0.000000 
Ti52	 0.359116	 0.721599	 0.500000 
Sr53	 0.313820	 0.623279	 0.500000 
Ti54	 0.220070	 0.785658	 0.000000 
Sr55	 0.327866	 0.775726	 0.000000 
Ti56	 0.296616	 0.829853	 0.500000 
Sr57	 0.251320	 0.731532	 0.500000 
Ti58	 0.657570	 0.027886	 0.000000 
Sr59	 0.265366	 0.883979	 0.000000 
Ti60	 0.734116	 0.072080	 0.500000 
Sr61	 0.188820	 0.839785	 0.500000 
Ti62	 0.748163	 0.224528	 0.000000 
Sr63	 0.855959	 0.214595	 0.000000 
Ti64	 0.824709	 0.268722	 0.500000 
Sr65	 0.779413	 0.170401	 0.500000 
Ti66	 0.685663	 0.332781	 0.000000 
Sr67	 0.793459	 0.322849	 0.000000 
Ti68	 0.762209	 0.376975	 0.500000 
Sr69	 0.716913	 0.278654	 0.500000 
Ti70	 0.623163	 0.441034	 0.000000 
Sr71	 0.730959	 0.431102	 0.000000 
Ti72	 0.699709	 0.485228	 0.500000 
Sr73	 0.654413	 0.386908	 0.500000 
Ti74	 0.560663	 0.549287	 0.000000 
Sr75	 0.668459	 0.539355	 0.000000 
Ti76	 0.637209	 0.593481	 0.500000 
Sr77	 0.591913	 0.495161	 0.500000 
Ti78	 0.498163	 0.657540	 0.000000 
Sr79	 0.605959	 0.647608	 0.000000 
Ti80	 0.574709	 0.701735	 0.500000 
Sr81	 0.529413	 0.603414	 0.500000 
Ti82	 0.435663	 0.765794	 0.000000 
Sr83	 0.543459	 0.755861	 0.000000 
Ti84	 0.512209	 0.809988	 0.500000 
Sr85	 0.466913	 0.711667	 0.500000 
Ti86	 0.373163	 0.874047	 0.000000 
Sr87	 0.480959	 0.864114	 0.000000 
Ti88	 0.449709	 0.918241	 0.500000 
Sr89	 0.404413	 0.819920	 0.500000 
Ti90	 0.810663	 0.116275	 0.000000 
Sr91	 0.418459	 0.972368	 0.000000 
Ti92	 0.887209	 0.160469	 0.500000 
Sr93	 0.341913	 0.928173	 0.500000 
Ti94	 0.901256	 0.312916	 0.000000 
Ti95	 0.977802	 0.357110	 0.500000 
Sr96	 0.932506	 0.258790	 0.500000 
Ti97	 0.838756	 0.421169	 0.000000 
Sr98	 0.946552	 0.411237	 0.000000 
Ti99	 0.915302	 0.465363	 0.500000 
Sr100	 0.870006	 0.367043	 0.500000 
Ti101	 0.776256	 0.529422	 0.000000 
Sr102	 0.884052	 0.519490	 0.000000 
Ti103	 0.852802	 0.573617	 0.500000 
Sr104	 0.807506	 0.475296	 0.500000 
Ti105	 0.713756	 0.637676	 0.000000 
Sr106	 0.821552	 0.627743	 0.000000 
Ti107	 0.790302	 0.681870	 0.500000 
Sr108	 0.745006	 0.583549	 0.500000 
Ti109	 0.651256	 0.745929	 0.000000 
Sr110	 0.759052	 0.735996	 0.000000 
Ti111	 0.727802	 0.790123	 0.500000 
Sr112	 0.682506	 0.691802	 0.500000 
Ti113	 0.588756	 0.854182	 0.000000 
Sr114	 0.696552	 0.844250	 0.000000 
Ti115	 0.665302	 0.898376	 0.500000 
Sr116	 0.620006	 0.800055	 0.500000 
Ti117	 0.526256	 0.962435	 0.000000 
Sr118	 0.634052	 0.952503	 0.000000 
Sr119	 0.557506	 0.908309	 0.500000 
Ti120	 0.963756	 0.204663	 0.000000 
Ti121	 0.365430	 0.003557	 0.500000 
Ti122	 0.991849	 0.509558	 0.000000 
Sr123	 0.334180	 0.057683	 0.000000 
Ti124	 0.302930	 0.111810	 0.500000 
Ti125	 0.929349	 0.617811	 0.000000 
Sr126	 0.271680	 0.165937	 0.000000 
Ti127	 0.240430	 0.220063	 0.500000 
Sr128	 0.960599	 0.563684	 0.500000 
Ti129	 0.866849	 0.726064	 0.000000 
Sr130	 0.209180	 0.274190	 0.000000 
Ti131	 0.177930	 0.328316	 0.500000 
Sr132	 0.898099	 0.671937	 0.500000 
Ti133	 0.804349	 0.834317	 0.000000 
Sr134	 0.146680	 0.382443	 0.000000 
Ti135	 0.115430	 0.436570	 0.500000 
Sr136	 0.835599	 0.780191	 0.500000 
Ti137	 0.741849	 0.942570	 0.000000 
Sr138	 0.084180	 0.490696	 0.000000 
Ti139	 0.052930	 0.544823	 0.500000 
Sr140	 0.773099	 0.888444	 0.500000 
Sr141	 0.021680	 0.598949	 0.000000 
Sr142	 0.710599	 0.996697	 0.500000 
#                 ---end-of-data-block---
