data_Pt structure along [001] nx 5 ny 8 nz 1
_cell_length_a               31.240000
_cell_length_b               31.240000
_cell_length_c               5.543717
_cell_angle_alpha          90.000000
_cell_angle_beta           90.000000
_cell_angle_gamma          90.000000
_symmetry_cell_setting          Triclinic
_symmetry_space_group_name_H-M 'P 1' 
loop_
_atom_site_label
_atom_site_fract_x
_atom_site_fract_y
_atom_site_fract_z
Ti1	 0.523424	 0.031136	 0.000000 
Sr2	 0.630119	 0.049442	 0.000000 
Ti3	 0.585924	 0.093636	 0.500000 
Ti4	 0.435036	 0.119525	 0.000000 
Sr5	 0.541730	 0.137830	 0.000000 
Ti6	 0.497536	 0.182025	 0.500000 
Sr7	 0.479230	 0.075330	 0.500000 
Ti8	 0.346648	 0.207913	 0.000000 
Sr9	 0.453342	 0.226219	 0.000000 
Ti10	 0.409148	 0.270413	 0.500000 
Sr11	 0.390842	 0.163719	 0.500000 
Ti12	 0.258259	 0.296301	 0.000000 
Sr13	 0.364954	 0.314607	 0.000000 
Ti14	 0.320759	 0.358801	 0.500000 
Sr15	 0.302454	 0.252107	 0.500000 
Ti16	 0.169871	 0.384690	 0.000000 
Sr17	 0.276565	 0.402995	 0.000000 
Ti18	 0.232371	 0.447190	 0.500000 
Sr19	 0.214065	 0.340495	 0.500000 
Ti20	 0.081483	 0.473078	 0.000000 
Sr21	 0.188177	 0.491384	 0.000000 
Ti22	 0.143983	 0.535578	 0.500000 
Sr23	 0.125677	 0.428884	 0.500000 
Sr24	 0.099788	 0.579772	 0.000000 
Ti25	 0.055594	 0.623966	 0.500000 
Sr26	 0.037288	 0.517272	 0.500000 
Sr27	 0.011400	 0.668160	 0.000000 
Ti28	 0.674313	 0.005248	 0.500000 
Ti29	 0.648424	 0.156136	 0.000000 
Sr30	 0.755119	 0.174442	 0.000000 
Ti31	 0.710924	 0.218636	 0.500000 
Sr32	 0.692619	 0.111942	 0.500000 
Ti33	 0.560036	 0.244525	 0.000000 
Sr34	 0.666730	 0.262830	 0.000000 
Ti35	 0.622536	 0.307025	 0.500000 
Sr36	 0.604230	 0.200330	 0.500000 
Ti37	 0.471648	 0.332913	 0.000000 
Sr38	 0.578342	 0.351219	 0.000000 
Ti39	 0.534148	 0.395413	 0.500000 
Sr40	 0.515842	 0.288719	 0.500000 
Ti41	 0.383259	 0.421301	 0.000000 
Sr42	 0.489954	 0.439607	 0.000000 
Ti43	 0.445759	 0.483801	 0.500000 
Sr44	 0.427454	 0.377107	 0.500000 
Ti45	 0.294871	 0.509690	 0.000000 
Sr46	 0.401565	 0.527995	 0.000000 
Ti47	 0.357371	 0.572190	 0.500000 
Sr48	 0.339065	 0.465495	 0.500000 
Ti49	 0.206483	 0.598078	 0.000000 
Sr50	 0.313177	 0.616384	 0.000000 
Ti51	 0.268983	 0.660578	 0.500000 
Sr52	 0.250677	 0.553884	 0.500000 
Ti53	 0.118094	 0.686466	 0.000000 
Sr54	 0.224788	 0.704772	 0.000000 
Ti55	 0.180594	 0.748966	 0.500000 
Sr56	 0.162288	 0.642272	 0.500000 
Ti57	 0.736813	 0.067748	 0.000000 
Sr58	 0.136400	 0.793160	 0.000000 
Ti59	 0.799313	 0.130248	 0.500000 
Sr60	 0.073900	 0.730660	 0.500000 
Ti61	 0.773424	 0.281136	 0.000000 
Sr62	 0.880119	 0.299442	 0.000000 
Ti63	 0.835924	 0.343636	 0.500000 
Sr64	 0.817619	 0.236942	 0.500000 
Ti65	 0.685036	 0.369525	 0.000000 
Sr66	 0.791730	 0.387830	 0.000000 
Ti67	 0.747536	 0.432025	 0.500000 
Sr68	 0.729230	 0.325330	 0.500000 
Ti69	 0.596648	 0.457913	 0.000000 
Sr70	 0.703342	 0.476219	 0.000000 
Ti71	 0.659148	 0.520413	 0.500000 
Sr72	 0.640842	 0.413719	 0.500000 
Ti73	 0.508259	 0.546301	 0.000000 
Sr74	 0.614954	 0.564607	 0.000000 
Ti75	 0.570759	 0.608801	 0.500000 
Sr76	 0.552454	 0.502107	 0.500000 
Ti77	 0.419871	 0.634690	 0.000000 
Sr78	 0.526565	 0.652995	 0.000000 
Ti79	 0.482371	 0.697190	 0.500000 
Sr80	 0.464065	 0.590495	 0.500000 
Ti81	 0.331483	 0.723078	 0.000000 
Sr82	 0.438177	 0.741384	 0.000000 
Ti83	 0.393983	 0.785578	 0.500000 
Sr84	 0.375677	 0.678884	 0.500000 
Ti85	 0.243094	 0.811466	 0.000000 
Sr86	 0.349788	 0.829772	 0.000000 
Ti87	 0.305594	 0.873966	 0.500000 
Sr88	 0.287288	 0.767272	 0.500000 
Ti89	 0.861813	 0.192748	 0.000000 
Sr90	 0.261400	 0.918160	 0.000000 
Ti91	 0.924313	 0.255248	 0.500000 
Sr92	 0.198900	 0.855660	 0.500000 
Ti93	 0.898424	 0.406136	 0.000000 
Ti94	 0.960924	 0.468636	 0.500000 
Sr95	 0.942619	 0.361942	 0.500000 
Ti96	 0.810036	 0.494525	 0.000000 
Sr97	 0.916730	 0.512830	 0.000000 
Ti98	 0.872536	 0.557025	 0.500000 
Sr99	 0.854230	 0.450330	 0.500000 
Ti100	 0.721648	 0.582913	 0.000000 
Sr101	 0.828342	 0.601219	 0.000000 
Ti102	 0.784148	 0.645413	 0.500000 
Sr103	 0.765842	 0.538719	 0.500000 
Ti104	 0.633259	 0.671301	 0.000000 
Sr105	 0.739954	 0.689607	 0.000000 
Ti106	 0.695759	 0.733801	 0.500000 
Sr107	 0.677454	 0.627107	 0.500000 
Ti108	 0.544871	 0.759690	 0.000000 
Sr109	 0.651565	 0.777995	 0.000000 
Ti110	 0.607371	 0.822190	 0.500000 
Sr111	 0.589065	 0.715495	 0.500000 
Ti112	 0.456483	 0.848078	 0.000000 
Sr113	 0.563177	 0.866384	 0.000000 
Ti114	 0.518983	 0.910578	 0.500000 
Sr115	 0.500677	 0.803884	 0.500000 
Ti116	 0.368094	 0.936466	 0.000000 
Sr117	 0.474788	 0.954772	 0.000000 
Ti118	 0.430594	 0.998966	 0.500000 
Sr119	 0.412288	 0.892272	 0.500000 
Ti120	 0.986813	 0.317748	 0.000000 
Sr121	 0.323900	 0.980660	 0.500000 
Ti122	 0.935036	 0.619525	 0.000000 
Sr123	 0.416730	 0.012830	 0.000000 
Ti124	 0.372536	 0.057025	 0.500000 
Sr125	 0.979230	 0.575330	 0.500000 
Ti126	 0.846648	 0.707913	 0.000000 
Sr127	 0.328342	 0.101219	 0.000000 
Ti128	 0.284148	 0.145413	 0.500000 
Sr129	 0.890842	 0.663719	 0.500000 
Ti130	 0.758259	 0.796301	 0.000000 
Sr131	 0.239954	 0.189607	 0.000000 
Ti132	 0.195759	 0.233801	 0.500000 
Sr133	 0.802454	 0.752107	 0.500000 
Ti134	 0.669871	 0.884690	 0.000000 
Sr135	 0.151565	 0.277995	 0.000000 
Ti136	 0.107371	 0.322190	 0.500000 
Sr137	 0.714065	 0.840495	 0.500000 
Ti138	 0.581483	 0.973078	 0.000000 
Sr139	 0.063177	 0.366384	 0.000000 
Ti140	 0.018983	 0.410578	 0.500000 
Sr141	 0.625677	 0.928884	 0.500000 
#                 ---end-of-data-block---
