data_Pt structure along [001] nx 5 ny 8 nz 1
_cell_length_a               31.240000
_cell_length_b               31.240000
_cell_length_c               5.543717
_cell_angle_alpha          90.000000
_cell_angle_beta           90.000000
_cell_angle_gamma          90.000000
_symmetry_cell_setting          Triclinic
_symmetry_space_group_name_H-M 'P 1' 
loop_
_atom_site_label
_atom_site_fract_x
_atom_site_fract_y
_atom_site_fract_z
Sr1	 0.721586	 0.016959	 0.000000 
Ti2	 0.677392	 0.061154	 0.500000 
Ti3	 0.526504	 0.087042	 0.000000 
Sr4	 0.633198	 0.105348	 0.000000 
Ti5	 0.589004	 0.149542	 0.500000 
Sr6	 0.570698	 0.042848	 0.500000 
Ti7	 0.438115	 0.175430	 0.000000 
Sr8	 0.544810	 0.193736	 0.000000 
Ti9	 0.500615	 0.237930	 0.500000 
Sr10	 0.482310	 0.131236	 0.500000 
Ti11	 0.349727	 0.263819	 0.000000 
Sr12	 0.456421	 0.282124	 0.000000 
Ti13	 0.412227	 0.326319	 0.500000 
Sr14	 0.393921	 0.219624	 0.500000 
Ti15	 0.261339	 0.352207	 0.000000 
Sr16	 0.368033	 0.370513	 0.000000 
Ti17	 0.323839	 0.414707	 0.500000 
Sr18	 0.305533	 0.308013	 0.500000 
Ti19	 0.172950	 0.440595	 0.000000 
Sr20	 0.279645	 0.458901	 0.000000 
Ti21	 0.235450	 0.503095	 0.500000 
Sr22	 0.217145	 0.396401	 0.500000 
Ti23	 0.084562	 0.528984	 0.000000 
Sr24	 0.191256	 0.547290	 0.000000 
Ti25	 0.147062	 0.591484	 0.500000 
Sr26	 0.128756	 0.484790	 0.500000 
Sr27	 0.102868	 0.635678	 0.000000 
Ti28	 0.058674	 0.679872	 0.500000 
Sr29	 0.040368	 0.573178	 0.500000 
Ti30	 0.739892	 0.123654	 0.000000 
Sr31	 0.846586	 0.141959	 0.000000 
Ti32	 0.802392	 0.186154	 0.500000 
Sr33	 0.784086	 0.079459	 0.500000 
Ti34	 0.651504	 0.212042	 0.000000 
Sr35	 0.758198	 0.230348	 0.000000 
Ti36	 0.714004	 0.274542	 0.500000 
Sr37	 0.695698	 0.167848	 0.500000 
Ti38	 0.563115	 0.300430	 0.000000 
Sr39	 0.669810	 0.318736	 0.000000 
Ti40	 0.625615	 0.362930	 0.500000 
Sr41	 0.607310	 0.256236	 0.500000 
Ti42	 0.474727	 0.388819	 0.000000 
Sr43	 0.581421	 0.407124	 0.000000 
Ti44	 0.537227	 0.451319	 0.500000 
Sr45	 0.518921	 0.344624	 0.500000 
Ti46	 0.386339	 0.477207	 0.000000 
Sr47	 0.493033	 0.495513	 0.000000 
Ti48	 0.448839	 0.539707	 0.500000 
Sr49	 0.430533	 0.433013	 0.500000 
Ti50	 0.297950	 0.565595	 0.000000 
Sr51	 0.404645	 0.583901	 0.000000 
Ti52	 0.360450	 0.628095	 0.500000 
Sr53	 0.342145	 0.521401	 0.500000 
Ti54	 0.209562	 0.653984	 0.000000 
Sr55	 0.316256	 0.672290	 0.000000 
Ti56	 0.272062	 0.716484	 0.500000 
Sr57	 0.253756	 0.609790	 0.500000 
Ti58	 0.121174	 0.742372	 0.000000 
Sr59	 0.227868	 0.760678	 0.000000 
Ti60	 0.183674	 0.804872	 0.500000 
Sr61	 0.165368	 0.698178	 0.500000 
Ti62	 0.864892	 0.248654	 0.000000 
Sr63	 0.971586	 0.266959	 0.000000 
Ti64	 0.927392	 0.311154	 0.500000 
Sr65	 0.909086	 0.204459	 0.500000 
Ti66	 0.776504	 0.337042	 0.000000 
Sr67	 0.883198	 0.355348	 0.000000 
Ti68	 0.839004	 0.399542	 0.500000 
Sr69	 0.820698	 0.292848	 0.500000 
Ti70	 0.688115	 0.425430	 0.000000 
Sr71	 0.794810	 0.443736	 0.000000 
Ti72	 0.750615	 0.487930	 0.500000 
Sr73	 0.732310	 0.381236	 0.500000 
Ti74	 0.599727	 0.513819	 0.000000 
Sr75	 0.706421	 0.532124	 0.000000 
Ti76	 0.662227	 0.576319	 0.500000 
Sr77	 0.643921	 0.469624	 0.500000 
Ti78	 0.511339	 0.602207	 0.000000 
Sr79	 0.618033	 0.620513	 0.000000 
Ti80	 0.573839	 0.664707	 0.500000 
Sr81	 0.555533	 0.558013	 0.500000 
Ti82	 0.422950	 0.690595	 0.000000 
Sr83	 0.529645	 0.708901	 0.000000 
Ti84	 0.485450	 0.753095	 0.500000 
Sr85	 0.467145	 0.646401	 0.500000 
Ti86	 0.334562	 0.778984	 0.000000 
Sr87	 0.441256	 0.797290	 0.000000 
Ti88	 0.397062	 0.841484	 0.500000 
Sr89	 0.378756	 0.734790	 0.500000 
Ti90	 0.246174	 0.867372	 0.000000 
Sr91	 0.352868	 0.885678	 0.000000 
Ti92	 0.308674	 0.929872	 0.500000 
Sr93	 0.290368	 0.823178	 0.500000 
Ti94	 0.989892	 0.373654	 0.000000 
Ti95	 0.901504	 0.462042	 0.000000 
Ti96	 0.964004	 0.524542	 0.500000 
Sr97	 0.945698	 0.417848	 0.500000 
Ti98	 0.813115	 0.550430	 0.000000 
Sr99	 0.919810	 0.568736	 0.000000 
Ti100	 0.875615	 0.612930	 0.500000 
Sr101	 0.857310	 0.506236	 0.500000 
Ti102	 0.724727	 0.638819	 0.000000 
Sr103	 0.831421	 0.657124	 0.000000 
Ti104	 0.787227	 0.701319	 0.500000 
Sr105	 0.768921	 0.594624	 0.500000 
Ti106	 0.636339	 0.727207	 0.000000 
Sr107	 0.743033	 0.745513	 0.000000 
Ti108	 0.698839	 0.789707	 0.500000 
Sr109	 0.680533	 0.683013	 0.500000 
Ti110	 0.547950	 0.815595	 0.000000 
Sr111	 0.654645	 0.833901	 0.000000 
Ti112	 0.610450	 0.878095	 0.500000 
Sr113	 0.592145	 0.771401	 0.500000 
Ti114	 0.459562	 0.903984	 0.000000 
Sr115	 0.566256	 0.922290	 0.000000 
Ti116	 0.522062	 0.966484	 0.500000 
Sr117	 0.503756	 0.859790	 0.500000 
Ti118	 0.371174	 0.992372	 0.000000 
Sr119	 0.415368	 0.948178	 0.500000 
Ti120	 0.464004	 0.024542	 0.500000 
Ti121	 0.938115	 0.675430	 0.000000 
Sr122	 0.419810	 0.068736	 0.000000 
Ti123	 0.375615	 0.112930	 0.500000 
Sr124	 0.982310	 0.631236	 0.500000 
Ti125	 0.849727	 0.763819	 0.000000 
Sr126	 0.331421	 0.157124	 0.000000 
Ti127	 0.287227	 0.201319	 0.500000 
Sr128	 0.893921	 0.719624	 0.500000 
Ti129	 0.761339	 0.852207	 0.000000 
Sr130	 0.243033	 0.245513	 0.000000 
Ti131	 0.198839	 0.289707	 0.500000 
Sr132	 0.805533	 0.808013	 0.500000 
Ti133	 0.672950	 0.940595	 0.000000 
Sr134	 0.154645	 0.333901	 0.000000 
Ti135	 0.110450	 0.378095	 0.500000 
Sr136	 0.717145	 0.896401	 0.500000 
Sr137	 0.066256	 0.422290	 0.000000 
Ti138	 0.022062	 0.466484	 0.500000 
Sr139	 0.628756	 0.984790	 0.500000 
#                 ---end-of-data-block---
