data_Pt structure along [001] nx 5 ny 8 nz 1
_cell_length_a               31.240000
_cell_length_b               31.240000
_cell_length_c               5.543717
_cell_angle_alpha          90.000000
_cell_angle_beta           90.000000
_cell_angle_gamma          90.000000
_symmetry_cell_setting          Triclinic
_symmetry_space_group_name_H-M 'P 1' 
loop_
_atom_site_label
_atom_site_fract_x
_atom_site_fract_y
_atom_site_fract_z
Sr1	 0.708139	 0.011193	 0.000000 
Ti2	 0.663945	 0.055387	 0.500000 
Ti3	 0.513056	 0.081275	 0.000000 
Sr4	 0.619751	 0.099581	 0.000000 
Ti5	 0.575556	 0.143775	 0.500000 
Sr6	 0.557251	 0.037081	 0.500000 
Ti7	 0.424668	 0.169664	 0.000000 
Sr8	 0.531362	 0.187970	 0.000000 
Ti9	 0.487168	 0.232164	 0.500000 
Sr10	 0.468862	 0.125470	 0.500000 
Ti11	 0.336280	 0.258052	 0.000000 
Sr12	 0.442974	 0.276358	 0.000000 
Ti13	 0.398780	 0.320552	 0.500000 
Sr14	 0.380474	 0.213858	 0.500000 
Ti15	 0.247891	 0.346440	 0.000000 
Sr16	 0.354585	 0.364746	 0.000000 
Ti17	 0.310391	 0.408940	 0.500000 
Sr18	 0.292085	 0.302246	 0.500000 
Ti19	 0.159503	 0.434829	 0.000000 
Sr20	 0.266197	 0.453135	 0.000000 
Ti21	 0.222003	 0.497329	 0.500000 
Sr22	 0.203697	 0.390635	 0.500000 
Ti23	 0.071115	 0.523217	 0.000000 
Sr24	 0.177809	 0.541523	 0.000000 
Ti25	 0.133615	 0.585717	 0.500000 
Sr26	 0.115309	 0.479023	 0.500000 
Sr27	 0.089420	 0.629911	 0.000000 
Ti28	 0.045226	 0.674105	 0.500000 
Sr29	 0.026920	 0.567411	 0.500000 
Ti30	 0.726445	 0.117887	 0.000000 
Sr31	 0.833139	 0.136193	 0.000000 
Ti32	 0.788945	 0.180387	 0.500000 
Sr33	 0.770639	 0.073693	 0.500000 
Ti34	 0.638056	 0.206275	 0.000000 
Sr35	 0.744751	 0.224581	 0.000000 
Ti36	 0.700556	 0.268775	 0.500000 
Sr37	 0.682251	 0.162081	 0.500000 
Ti38	 0.549668	 0.294664	 0.000000 
Sr39	 0.656362	 0.312970	 0.000000 
Ti40	 0.612168	 0.357164	 0.500000 
Sr41	 0.593862	 0.250470	 0.500000 
Ti42	 0.461280	 0.383052	 0.000000 
Sr43	 0.567974	 0.401358	 0.000000 
Ti44	 0.523780	 0.445552	 0.500000 
Sr45	 0.505474	 0.338858	 0.500000 
Ti46	 0.372891	 0.471440	 0.000000 
Sr47	 0.479585	 0.489746	 0.000000 
Ti48	 0.435391	 0.533940	 0.500000 
Sr49	 0.417085	 0.427246	 0.500000 
Ti50	 0.284503	 0.559829	 0.000000 
Sr51	 0.391197	 0.578135	 0.000000 
Ti52	 0.347003	 0.622329	 0.500000 
Sr53	 0.328697	 0.515635	 0.500000 
Ti54	 0.196115	 0.648217	 0.000000 
Sr55	 0.302809	 0.666523	 0.000000 
Ti56	 0.258615	 0.710717	 0.500000 
Sr57	 0.240309	 0.604023	 0.500000 
Ti58	 0.107726	 0.736605	 0.000000 
Sr59	 0.214420	 0.754911	 0.000000 
Ti60	 0.170226	 0.799105	 0.500000 
Sr61	 0.151920	 0.692411	 0.500000 
Ti62	 0.851445	 0.242887	 0.000000 
Sr63	 0.958139	 0.261193	 0.000000 
Ti64	 0.913945	 0.305387	 0.500000 
Sr65	 0.895639	 0.198693	 0.500000 
Ti66	 0.763056	 0.331275	 0.000000 
Sr67	 0.869751	 0.349581	 0.000000 
Ti68	 0.825556	 0.393775	 0.500000 
Sr69	 0.807251	 0.287081	 0.500000 
Ti70	 0.674668	 0.419664	 0.000000 
Sr71	 0.781362	 0.437970	 0.000000 
Ti72	 0.737168	 0.482164	 0.500000 
Sr73	 0.718862	 0.375470	 0.500000 
Ti74	 0.586280	 0.508052	 0.000000 
Sr75	 0.692974	 0.526358	 0.000000 
Ti76	 0.648780	 0.570552	 0.500000 
Sr77	 0.630474	 0.463858	 0.500000 
Ti78	 0.497891	 0.596440	 0.000000 
Sr79	 0.604585	 0.614746	 0.000000 
Ti80	 0.560391	 0.658940	 0.500000 
Sr81	 0.542085	 0.552246	 0.500000 
Ti82	 0.409503	 0.684829	 0.000000 
Sr83	 0.516197	 0.703135	 0.000000 
Ti84	 0.472003	 0.747329	 0.500000 
Sr85	 0.453697	 0.640635	 0.500000 
Ti86	 0.321115	 0.773217	 0.000000 
Sr87	 0.427809	 0.791523	 0.000000 
Ti88	 0.383615	 0.835717	 0.500000 
Sr89	 0.365309	 0.729023	 0.500000 
Ti90	 0.232726	 0.861605	 0.000000 
Sr91	 0.339420	 0.879911	 0.000000 
Ti92	 0.295226	 0.924105	 0.500000 
Sr93	 0.276920	 0.817411	 0.500000 
Ti94	 0.976445	 0.367887	 0.000000 
Ti95	 0.888056	 0.456275	 0.000000 
Sr96	 0.994751	 0.474581	 0.000000 
Ti97	 0.950556	 0.518775	 0.500000 
Sr98	 0.932251	 0.412081	 0.500000 
Ti99	 0.799668	 0.544664	 0.000000 
Sr100	 0.906362	 0.562970	 0.000000 
Ti101	 0.862168	 0.607164	 0.500000 
Sr102	 0.843862	 0.500470	 0.500000 
Ti103	 0.711280	 0.633052	 0.000000 
Sr104	 0.817974	 0.651358	 0.000000 
Ti105	 0.773780	 0.695552	 0.500000 
Sr106	 0.755474	 0.588858	 0.500000 
Ti107	 0.622891	 0.721440	 0.000000 
Sr108	 0.729585	 0.739746	 0.000000 
Ti109	 0.685391	 0.783940	 0.500000 
Sr110	 0.667085	 0.677246	 0.500000 
Ti111	 0.534503	 0.809829	 0.000000 
Sr112	 0.641197	 0.828135	 0.000000 
Ti113	 0.597003	 0.872329	 0.500000 
Sr114	 0.578697	 0.765635	 0.500000 
Ti115	 0.446115	 0.898217	 0.000000 
Sr116	 0.552809	 0.916523	 0.000000 
Ti117	 0.508615	 0.960717	 0.500000 
Sr118	 0.490309	 0.854023	 0.500000 
Ti119	 0.357726	 0.986605	 0.000000 
Sr120	 0.401920	 0.942411	 0.500000 
Ti121	 0.450556	 0.018775	 0.500000 
Ti122	 0.924668	 0.669664	 0.000000 
Sr123	 0.406362	 0.062970	 0.000000 
Ti124	 0.362168	 0.107164	 0.500000 
Sr125	 0.968862	 0.625470	 0.500000 
Ti126	 0.836280	 0.758052	 0.000000 
Sr127	 0.317974	 0.151358	 0.000000 
Ti128	 0.273780	 0.195552	 0.500000 
Sr129	 0.880474	 0.713858	 0.500000 
Ti130	 0.747891	 0.846440	 0.000000 
Sr131	 0.229585	 0.239746	 0.000000 
Ti132	 0.185391	 0.283940	 0.500000 
Sr133	 0.792085	 0.802246	 0.500000 
Ti134	 0.659503	 0.934829	 0.000000 
Sr135	 0.141197	 0.328135	 0.000000 
Ti136	 0.097003	 0.372329	 0.500000 
Sr137	 0.703697	 0.890635	 0.500000 
Sr138	 0.052809	 0.416523	 0.000000 
Ti139	 0.008615	 0.460717	 0.500000 
Sr140	 0.615309	 0.979023	 0.500000 
#                 ---end-of-data-block---
