data_Pt structure along [001] nx 5 ny 8 nz 1
_cell_length_a               31.240000
_cell_length_b               31.240000
_cell_length_c               5.543717
_cell_angle_alpha          90.000000
_cell_angle_beta           90.000000
_cell_angle_gamma          90.000000
_symmetry_cell_setting          Triclinic
_symmetry_space_group_name_H-M 'P 1' 
loop_
_atom_site_label
_atom_site_fract_x
_atom_site_fract_y
_atom_site_fract_z
Sr1	 0.541051	 0.017466	 0.000000 
Ti2	 0.496857	 0.061660	 0.500000 
Ti3	 0.345969	 0.087548	 0.000000 
Sr4	 0.452663	 0.105854	 0.000000 
Ti5	 0.408469	 0.150048	 0.500000 
Sr6	 0.390163	 0.043354	 0.500000 
Ti7	 0.257580	 0.175937	 0.000000 
Sr8	 0.364275	 0.194242	 0.000000 
Ti9	 0.320080	 0.238437	 0.500000 
Sr10	 0.301775	 0.131742	 0.500000 
Ti11	 0.169192	 0.264325	 0.000000 
Sr12	 0.275886	 0.282631	 0.000000 
Ti13	 0.231692	 0.326825	 0.500000 
Sr14	 0.213386	 0.220131	 0.500000 
Ti15	 0.080804	 0.352713	 0.000000 
Sr16	 0.187498	 0.371019	 0.000000 
Ti17	 0.143304	 0.415213	 0.500000 
Sr18	 0.124998	 0.308519	 0.500000 
Sr19	 0.099110	 0.459408	 0.000000 
Ti20	 0.054915	 0.503602	 0.500000 
Sr21	 0.036610	 0.396908	 0.500000 
Sr22	 0.010721	 0.547796	 0.000000 
Ti23	 0.647745	 0.035772	 0.000000 
Sr24	 0.754440	 0.054077	 0.000000 
Ti25	 0.710245	 0.098272	 0.500000 
Ti26	 0.559357	 0.124160	 0.000000 
Sr27	 0.666051	 0.142466	 0.000000 
Ti28	 0.621857	 0.186660	 0.500000 
Sr29	 0.603551	 0.079966	 0.500000 
Ti30	 0.470969	 0.212548	 0.000000 
Sr31	 0.577663	 0.230854	 0.000000 
Ti32	 0.533469	 0.275048	 0.500000 
Sr33	 0.515163	 0.168354	 0.500000 
Ti34	 0.382580	 0.300937	 0.000000 
Sr35	 0.489275	 0.319242	 0.000000 
Ti36	 0.445080	 0.363437	 0.500000 
Sr37	 0.426775	 0.256742	 0.500000 
Ti38	 0.294192	 0.389325	 0.000000 
Sr39	 0.400886	 0.407631	 0.000000 
Ti40	 0.356692	 0.451825	 0.500000 
Sr41	 0.338386	 0.345131	 0.500000 
Ti42	 0.205804	 0.477713	 0.000000 
Sr43	 0.312498	 0.496019	 0.000000 
Ti44	 0.268304	 0.540213	 0.500000 
Sr45	 0.249998	 0.433519	 0.500000 
Ti46	 0.117415	 0.566102	 0.000000 
Sr47	 0.224110	 0.584408	 0.000000 
Ti48	 0.179915	 0.628602	 0.500000 
Sr49	 0.161610	 0.521908	 0.500000 
Ti50	 0.029027	 0.654490	 0.000000 
Sr51	 0.135721	 0.672796	 0.000000 
Ti52	 0.091527	 0.716990	 0.500000 
Sr53	 0.073221	 0.610296	 0.500000 
Ti54	 0.772745	 0.160772	 0.000000 
Sr55	 0.879440	 0.179077	 0.000000 
Ti56	 0.835245	 0.223272	 0.500000 
Sr57	 0.816940	 0.116577	 0.500000 
Ti58	 0.684357	 0.249160	 0.000000 
Sr59	 0.791051	 0.267466	 0.000000 
Ti60	 0.746857	 0.311660	 0.500000 
Sr61	 0.728551	 0.204966	 0.500000 
Ti62	 0.595969	 0.337548	 0.000000 
Sr63	 0.702663	 0.355854	 0.000000 
Ti64	 0.658469	 0.400048	 0.500000 
Sr65	 0.640163	 0.293354	 0.500000 
Ti66	 0.507580	 0.425937	 0.000000 
Sr67	 0.614275	 0.444242	 0.000000 
Ti68	 0.570080	 0.488437	 0.500000 
Sr69	 0.551775	 0.381742	 0.500000 
Ti70	 0.419192	 0.514325	 0.000000 
Sr71	 0.525886	 0.532631	 0.000000 
Ti72	 0.481692	 0.576825	 0.500000 
Sr73	 0.463386	 0.470131	 0.500000 
Ti74	 0.330804	 0.602713	 0.000000 
Sr75	 0.437498	 0.621019	 0.000000 
Ti76	 0.393304	 0.665213	 0.500000 
Sr77	 0.374998	 0.558519	 0.500000 
Ti78	 0.242415	 0.691102	 0.000000 
Sr79	 0.349110	 0.709408	 0.000000 
Ti80	 0.304915	 0.753602	 0.500000 
Sr81	 0.286610	 0.646908	 0.500000 
Ti82	 0.154027	 0.779490	 0.000000 
Sr83	 0.260721	 0.797796	 0.000000 
Ti84	 0.216527	 0.841990	 0.500000 
Sr85	 0.198221	 0.735296	 0.500000 
Ti86	 0.897745	 0.285772	 0.000000 
Ti87	 0.960245	 0.348272	 0.500000 
Sr88	 0.941940	 0.241577	 0.500000 
Ti89	 0.809357	 0.374160	 0.000000 
Sr90	 0.916051	 0.392466	 0.000000 
Ti91	 0.871857	 0.436660	 0.500000 
Sr92	 0.853551	 0.329966	 0.500000 
Ti93	 0.720969	 0.462548	 0.000000 
Sr94	 0.827663	 0.480854	 0.000000 
Ti95	 0.783469	 0.525048	 0.500000 
Sr96	 0.765163	 0.418354	 0.500000 
Ti97	 0.632580	 0.550937	 0.000000 
Sr98	 0.739275	 0.569242	 0.000000 
Ti99	 0.695080	 0.613437	 0.500000 
Sr100	 0.676775	 0.506742	 0.500000 
Ti101	 0.544192	 0.639325	 0.000000 
Sr102	 0.650886	 0.657631	 0.000000 
Ti103	 0.606692	 0.701825	 0.500000 
Sr104	 0.588386	 0.595131	 0.500000 
Ti105	 0.455804	 0.727713	 0.000000 
Sr106	 0.562498	 0.746019	 0.000000 
Ti107	 0.518304	 0.790213	 0.500000 
Sr108	 0.499998	 0.683519	 0.500000 
Ti109	 0.367415	 0.816102	 0.000000 
Sr110	 0.474110	 0.834408	 0.000000 
Ti111	 0.429915	 0.878602	 0.500000 
Sr112	 0.411610	 0.771908	 0.500000 
Ti113	 0.279027	 0.904490	 0.000000 
Sr114	 0.385721	 0.922796	 0.000000 
Ti115	 0.341527	 0.966990	 0.500000 
Sr116	 0.323221	 0.860296	 0.500000 
Ti117	 0.934357	 0.499160	 0.000000 
Ti118	 0.996857	 0.561660	 0.500000 
Sr119	 0.978551	 0.454966	 0.500000 
Ti120	 0.845969	 0.587548	 0.000000 
Sr121	 0.952663	 0.605854	 0.000000 
Ti122	 0.908469	 0.650048	 0.500000 
Sr123	 0.890163	 0.543354	 0.500000 
Ti124	 0.757580	 0.675937	 0.000000 
Sr125	 0.864275	 0.694242	 0.000000 
Ti126	 0.820080	 0.738437	 0.500000 
Sr127	 0.801775	 0.631742	 0.500000 
Ti128	 0.669192	 0.764325	 0.000000 
Sr129	 0.775886	 0.782631	 0.000000 
Ti130	 0.731692	 0.826825	 0.500000 
Sr131	 0.713386	 0.720131	 0.500000 
Ti132	 0.580804	 0.852713	 0.000000 
Sr133	 0.687498	 0.871019	 0.000000 
Ti134	 0.643304	 0.915213	 0.500000 
Sr135	 0.624998	 0.808519	 0.500000 
Ti136	 0.492415	 0.941102	 0.000000 
Sr137	 0.599110	 0.959408	 0.000000 
Sr138	 0.536610	 0.896908	 0.500000 
Sr139	 0.448221	 0.985296	 0.500000 
#                 ---end-of-data-block---
