data_Pt structure along [001] nx 5 ny 8 nz 1
_cell_length_a               31.240000
_cell_length_b               31.240000
_cell_length_c               5.543717
_cell_angle_alpha          90.000000
_cell_angle_beta           90.000000
_cell_angle_gamma          90.000000
_symmetry_cell_setting          Triclinic
_symmetry_space_group_name_H-M 'P 1' 
loop_
_atom_site_label
_atom_site_fract_x
_atom_site_fract_y
_atom_site_fract_z
Ti1	 0.672631	 0.006245	 0.500000 
Sr2	 0.618505	 0.037495	 0.000000 
Ti3	 0.564378	 0.068745	 0.500000 
Ti4	 0.411931	 0.054698	 0.000000 
Sr5	 0.510252	 0.099995	 0.000000 
Ti6	 0.456125	 0.131245	 0.500000 
Sr7	 0.466057	 0.023448	 0.500000 
Ti8	 0.303678	 0.117198	 0.000000 
Sr9	 0.401998	 0.162495	 0.000000 
Ti10	 0.347872	 0.193745	 0.500000 
Sr11	 0.357804	 0.085948	 0.500000 
Ti12	 0.195425	 0.179698	 0.000000 
Sr13	 0.293745	 0.224995	 0.000000 
Ti14	 0.239619	 0.256245	 0.500000 
Sr15	 0.249551	 0.148448	 0.500000 
Ti16	 0.087171	 0.242198	 0.000000 
Sr17	 0.185492	 0.287495	 0.000000 
Ti18	 0.131366	 0.318745	 0.500000 
Sr19	 0.141298	 0.210948	 0.500000 
Sr20	 0.077239	 0.349995	 0.000000 
Ti21	 0.023112	 0.381245	 0.500000 
Sr22	 0.033045	 0.273448	 0.500000 
Ti23	 0.716826	 0.082792	 0.000000 
Sr24	 0.815146	 0.128088	 0.000000 
Ti25	 0.761020	 0.159338	 0.500000 
Sr26	 0.770952	 0.051542	 0.500000 
Ti27	 0.608572	 0.145292	 0.000000 
Sr28	 0.706893	 0.190588	 0.000000 
Ti29	 0.652767	 0.221838	 0.500000 
Sr30	 0.662699	 0.114042	 0.500000 
Ti31	 0.500319	 0.207792	 0.000000 
Sr32	 0.598640	 0.253088	 0.000000 
Ti33	 0.544513	 0.284338	 0.500000 
Sr34	 0.554446	 0.176542	 0.500000 
Ti35	 0.392066	 0.270292	 0.000000 
Sr36	 0.490387	 0.315588	 0.000000 
Ti37	 0.436260	 0.346838	 0.500000 
Sr38	 0.446193	 0.239042	 0.500000 
Ti39	 0.283813	 0.332792	 0.000000 
Sr40	 0.382134	 0.378088	 0.000000 
Ti41	 0.328007	 0.409338	 0.500000 
Sr42	 0.337939	 0.301542	 0.500000 
Ti43	 0.175560	 0.395292	 0.000000 
Sr44	 0.273880	 0.440588	 0.000000 
Ti45	 0.219754	 0.471838	 0.500000 
Sr46	 0.229686	 0.364042	 0.500000 
Ti47	 0.067307	 0.457792	 0.000000 
Sr48	 0.165627	 0.503088	 0.000000 
Ti49	 0.111501	 0.534338	 0.500000 
Sr50	 0.121433	 0.426542	 0.500000 
Sr51	 0.057374	 0.565588	 0.000000 
Ti52	 0.003248	 0.596838	 0.500000 
Sr53	 0.013180	 0.489042	 0.500000 
Ti54	 0.805214	 0.235885	 0.000000 
Sr55	 0.903535	 0.281181	 0.000000 
Ti56	 0.849408	 0.312431	 0.500000 
Sr57	 0.859341	 0.204635	 0.500000 
Ti58	 0.696961	 0.298385	 0.000000 
Sr59	 0.795282	 0.343681	 0.000000 
Ti60	 0.741155	 0.374931	 0.500000 
Sr61	 0.751087	 0.267135	 0.500000 
Ti62	 0.588708	 0.360885	 0.000000 
Sr63	 0.687028	 0.406181	 0.000000 
Ti64	 0.632902	 0.437431	 0.500000 
Sr65	 0.642834	 0.329635	 0.500000 
Ti66	 0.480454	 0.423385	 0.000000 
Sr67	 0.578775	 0.468681	 0.000000 
Ti68	 0.524649	 0.499931	 0.500000 
Sr69	 0.534581	 0.392135	 0.500000 
Ti70	 0.372201	 0.485885	 0.000000 
Sr71	 0.470522	 0.531181	 0.000000 
Ti72	 0.416395	 0.562431	 0.500000 
Sr73	 0.426328	 0.454635	 0.500000 
Ti74	 0.263948	 0.548385	 0.000000 
Sr75	 0.362269	 0.593681	 0.000000 
Ti76	 0.308142	 0.624931	 0.500000 
Sr77	 0.318075	 0.517135	 0.500000 
Ti78	 0.155695	 0.610885	 0.000000 
Sr79	 0.254016	 0.656181	 0.000000 
Ti80	 0.199889	 0.687431	 0.500000 
Sr81	 0.209821	 0.579635	 0.500000 
Ti82	 0.047442	 0.673385	 0.000000 
Sr83	 0.145762	 0.718681	 0.000000 
Ti84	 0.091636	 0.749931	 0.500000 
Sr85	 0.101568	 0.642135	 0.500000 
Ti86	 0.893602	 0.388978	 0.000000 
Sr87	 0.991923	 0.434274	 0.000000 
Ti88	 0.937796	 0.465524	 0.500000 
Sr89	 0.947729	 0.357728	 0.500000 
Ti90	 0.785349	 0.451478	 0.000000 
Sr91	 0.883670	 0.496774	 0.000000 
Ti92	 0.829543	 0.528024	 0.500000 
Sr93	 0.839476	 0.420228	 0.500000 
Ti94	 0.677096	 0.513978	 0.000000 
Sr95	 0.775417	 0.559274	 0.000000 
Ti96	 0.721290	 0.590524	 0.500000 
Sr97	 0.731223	 0.482728	 0.500000 
Ti98	 0.568843	 0.576478	 0.000000 
Sr99	 0.667164	 0.621774	 0.000000 
Ti100	 0.613037	 0.653024	 0.500000 
Sr101	 0.622969	 0.545228	 0.500000 
Ti102	 0.460590	 0.638978	 0.000000 
Sr103	 0.558910	 0.684274	 0.000000 
Ti104	 0.504784	 0.715524	 0.500000 
Sr105	 0.514716	 0.607728	 0.500000 
Ti106	 0.352336	 0.701478	 0.000000 
Sr107	 0.450657	 0.746774	 0.000000 
Ti108	 0.396531	 0.778024	 0.500000 
Sr109	 0.406463	 0.670228	 0.500000 
Ti110	 0.244083	 0.763978	 0.000000 
Sr111	 0.342404	 0.809274	 0.000000 
Ti112	 0.288277	 0.840524	 0.500000 
Sr113	 0.298210	 0.732728	 0.500000 
Ti114	 0.135830	 0.826478	 0.000000 
Sr115	 0.234151	 0.871774	 0.000000 
Ti116	 0.180024	 0.903024	 0.500000 
Sr117	 0.189957	 0.795228	 0.500000 
Ti118	 0.981991	 0.542071	 0.000000 
Ti119	 0.873737	 0.604571	 0.000000 
Sr120	 0.972058	 0.649867	 0.000000 
Ti121	 0.917932	 0.681117	 0.500000 
Sr122	 0.927864	 0.573321	 0.500000 
Ti123	 0.765484	 0.667071	 0.000000 
Sr124	 0.863805	 0.712367	 0.000000 
Ti125	 0.809678	 0.743617	 0.500000 
Sr126	 0.819611	 0.635821	 0.500000 
Ti127	 0.657231	 0.729571	 0.000000 
Sr128	 0.755552	 0.774867	 0.000000 
Ti129	 0.701425	 0.806117	 0.500000 
Sr130	 0.711358	 0.698321	 0.500000 
Ti131	 0.548978	 0.792071	 0.000000 
Sr132	 0.647299	 0.837367	 0.000000 
Ti133	 0.593172	 0.868617	 0.500000 
Sr134	 0.603105	 0.760821	 0.500000 
Ti135	 0.440725	 0.854571	 0.000000 
Sr136	 0.539046	 0.899867	 0.000000 
Ti137	 0.484919	 0.931117	 0.500000 
Sr138	 0.494851	 0.823321	 0.500000 
Ti139	 0.332472	 0.917071	 0.000000 
Sr140	 0.430792	 0.962367	 0.000000 
Ti141	 0.376666	 0.993617	 0.500000 
Sr142	 0.386598	 0.885821	 0.500000 
Ti143	 0.224218	 0.979571	 0.000000 
Sr144	 0.278345	 0.948321	 0.500000 
#                 ---end-of-data-block---
