data_Pt structure along [001] nx 5 ny 8 nz 1
_cell_length_a               31.240000
_cell_length_b               31.240000
_cell_length_c               5.543717
_cell_angle_alpha          90.000000
_cell_angle_beta           90.000000
_cell_angle_gamma          90.000000
_symmetry_cell_setting          Triclinic
_symmetry_space_group_name_H-M 'P 1' 
loop_
_atom_site_label
_atom_site_fract_x
_atom_site_fract_y
_atom_site_fract_z
Sr1	 0.774349	 0.003064	 0.000000 
Ti2	 0.720222	 0.034314	 0.500000 
Ti3	 0.567775	 0.020267	 0.000000 
Sr4	 0.666096	 0.065564	 0.000000 
Ti5	 0.611969	 0.096814	 0.500000 
Ti6	 0.459522	 0.082767	 0.000000 
Sr7	 0.557843	 0.128064	 0.000000 
Ti8	 0.503716	 0.159314	 0.500000 
Sr9	 0.513648	 0.051517	 0.500000 
Ti10	 0.351269	 0.145267	 0.000000 
Sr11	 0.449589	 0.190564	 0.000000 
Ti12	 0.395463	 0.221814	 0.500000 
Sr13	 0.405395	 0.114017	 0.500000 
Ti14	 0.243015	 0.207767	 0.000000 
Sr15	 0.341336	 0.253064	 0.000000 
Ti16	 0.287210	 0.284314	 0.500000 
Sr17	 0.297142	 0.176517	 0.500000 
Ti18	 0.134762	 0.270267	 0.000000 
Sr19	 0.233083	 0.315564	 0.000000 
Ti20	 0.178956	 0.346814	 0.500000 
Sr21	 0.188889	 0.239017	 0.500000 
Ti22	 0.026509	 0.332767	 0.000000 
Sr23	 0.124830	 0.378064	 0.000000 
Ti24	 0.070703	 0.409314	 0.500000 
Sr25	 0.080636	 0.301517	 0.500000 
Sr26	 0.016577	 0.440564	 0.000000 
Ti27	 0.764417	 0.110860	 0.000000 
Sr28	 0.862737	 0.156157	 0.000000 
Ti29	 0.808611	 0.187407	 0.500000 
Sr30	 0.818543	 0.079610	 0.500000 
Ti31	 0.656163	 0.173360	 0.000000 
Sr32	 0.754484	 0.218657	 0.000000 
Ti33	 0.700358	 0.249907	 0.500000 
Sr34	 0.710290	 0.142110	 0.500000 
Ti35	 0.547910	 0.235860	 0.000000 
Sr36	 0.646231	 0.281157	 0.000000 
Ti37	 0.592104	 0.312407	 0.500000 
Sr38	 0.602037	 0.204610	 0.500000 
Ti39	 0.439657	 0.298360	 0.000000 
Sr40	 0.537978	 0.343657	 0.000000 
Ti41	 0.483851	 0.374907	 0.500000 
Sr42	 0.493784	 0.267110	 0.500000 
Ti43	 0.331404	 0.360860	 0.000000 
Sr44	 0.429725	 0.406157	 0.000000 
Ti45	 0.375598	 0.437407	 0.500000 
Sr46	 0.385530	 0.329610	 0.500000 
Ti47	 0.223151	 0.423360	 0.000000 
Sr48	 0.321471	 0.468657	 0.000000 
Ti49	 0.267345	 0.499907	 0.500000 
Sr50	 0.277277	 0.392110	 0.500000 
Ti51	 0.114897	 0.485860	 0.000000 
Sr52	 0.213218	 0.531157	 0.000000 
Ti53	 0.159092	 0.562407	 0.500000 
Sr54	 0.169024	 0.454610	 0.500000 
Ti55	 0.006644	 0.548360	 0.000000 
Sr56	 0.104965	 0.593657	 0.000000 
Ti57	 0.050838	 0.624907	 0.500000 
Sr58	 0.060771	 0.517110	 0.500000 
Ti59	 0.852805	 0.263954	 0.000000 
Sr60	 0.951126	 0.309250	 0.000000 
Ti61	 0.896999	 0.340500	 0.500000 
Sr62	 0.906931	 0.232704	 0.500000 
Ti63	 0.744552	 0.326454	 0.000000 
Sr64	 0.842872	 0.371750	 0.000000 
Ti65	 0.788746	 0.403000	 0.500000 
Sr66	 0.798678	 0.295204	 0.500000 
Ti67	 0.636299	 0.388954	 0.000000 
Sr68	 0.734619	 0.434250	 0.000000 
Ti69	 0.680493	 0.465500	 0.500000 
Sr70	 0.690425	 0.357704	 0.500000 
Ti71	 0.528045	 0.451454	 0.000000 
Sr72	 0.626366	 0.496750	 0.000000 
Ti73	 0.572240	 0.528000	 0.500000 
Sr74	 0.582172	 0.420204	 0.500000 
Ti75	 0.419792	 0.513954	 0.000000 
Sr76	 0.518113	 0.559250	 0.000000 
Ti77	 0.463986	 0.590500	 0.500000 
Sr78	 0.473919	 0.482704	 0.500000 
Ti79	 0.311539	 0.576454	 0.000000 
Sr80	 0.409860	 0.621750	 0.000000 
Ti81	 0.355733	 0.653000	 0.500000 
Sr82	 0.365666	 0.545204	 0.500000 
Ti83	 0.203286	 0.638954	 0.000000 
Sr84	 0.301607	 0.684250	 0.000000 
Ti85	 0.247480	 0.715500	 0.500000 
Sr86	 0.257412	 0.607704	 0.500000 
Ti87	 0.095033	 0.701454	 0.000000 
Sr88	 0.193353	 0.746750	 0.000000 
Ti89	 0.139227	 0.778000	 0.500000 
Sr90	 0.149159	 0.670204	 0.500000 
Ti91	 0.941193	 0.417047	 0.000000 
Ti92	 0.985387	 0.493593	 0.500000 
Sr93	 0.995320	 0.385797	 0.500000 
Ti94	 0.832940	 0.479547	 0.000000 
Sr95	 0.931261	 0.524843	 0.000000 
Ti96	 0.877134	 0.556093	 0.500000 
Sr97	 0.887067	 0.448297	 0.500000 
Ti98	 0.724687	 0.542047	 0.000000 
Sr99	 0.823008	 0.587343	 0.000000 
Ti100	 0.768881	 0.618593	 0.500000 
Sr101	 0.778813	 0.510797	 0.500000 
Ti102	 0.616434	 0.604547	 0.000000 
Sr103	 0.714754	 0.649843	 0.000000 
Ti104	 0.660628	 0.681093	 0.500000 
Sr105	 0.670560	 0.573297	 0.500000 
Ti106	 0.508181	 0.667047	 0.000000 
Sr107	 0.606501	 0.712343	 0.000000 
Ti108	 0.552375	 0.743593	 0.500000 
Sr109	 0.562307	 0.635797	 0.500000 
Ti110	 0.399927	 0.729547	 0.000000 
Sr111	 0.498248	 0.774843	 0.000000 
Ti112	 0.444122	 0.806093	 0.500000 
Sr113	 0.454054	 0.698297	 0.500000 
Ti114	 0.291674	 0.792047	 0.000000 
Sr115	 0.389995	 0.837343	 0.000000 
Ti116	 0.335868	 0.868593	 0.500000 
Sr117	 0.345801	 0.760797	 0.500000 
Ti118	 0.183421	 0.854547	 0.000000 
Sr119	 0.281742	 0.899843	 0.000000 
Ti120	 0.227615	 0.931093	 0.500000 
Sr121	 0.237548	 0.823297	 0.500000 
Ti122	 0.921328	 0.632640	 0.000000 
Ti123	 0.965523	 0.709186	 0.500000 
Sr124	 0.975455	 0.601390	 0.500000 
Ti125	 0.813075	 0.695140	 0.000000 
Sr126	 0.911396	 0.740436	 0.000000 
Ti127	 0.857269	 0.771686	 0.500000 
Sr128	 0.867202	 0.663890	 0.500000 
Ti129	 0.704822	 0.757640	 0.000000 
Sr130	 0.803143	 0.802936	 0.000000 
Ti131	 0.749016	 0.834186	 0.500000 
Sr132	 0.758949	 0.726390	 0.500000 
Ti133	 0.596569	 0.820140	 0.000000 
Sr134	 0.694890	 0.865436	 0.000000 
Ti135	 0.640763	 0.896686	 0.500000 
Sr136	 0.650695	 0.788890	 0.500000 
Ti137	 0.488316	 0.882640	 0.000000 
Sr138	 0.586636	 0.927936	 0.000000 
Ti139	 0.532510	 0.959186	 0.500000 
Sr140	 0.542442	 0.851390	 0.500000 
Ti141	 0.380063	 0.945140	 0.000000 
Sr142	 0.478383	 0.990436	 0.000000 
Sr143	 0.434189	 0.913890	 0.500000 
Sr144	 0.325936	 0.976390	 0.500000 
#                 ---end-of-data-block---
