data_Pt structure along [001] nx 5 ny 8 nz 1
_cell_length_a               31.240000
_cell_length_b               31.240000
_cell_length_c               5.543717
_cell_angle_alpha          90.000000
_cell_angle_beta           90.000000
_cell_angle_gamma          90.000000
_symmetry_cell_setting          Triclinic
_symmetry_space_group_name_H-M 'P 1' 
loop_
_atom_site_label
_atom_site_fract_x
_atom_site_fract_y
_atom_site_fract_z
Sr1	 0.682343	 0.032040	 0.000000 
Ti2	 0.628217	 0.063290	 0.500000 
Ti3	 0.475770	 0.049244	 0.000000 
Sr4	 0.574090	 0.094540	 0.000000 
Ti5	 0.519964	 0.125790	 0.500000 
Sr6	 0.529896	 0.017994	 0.500000 
Ti7	 0.367516	 0.111744	 0.000000 
Sr8	 0.465837	 0.157040	 0.000000 
Ti9	 0.411711	 0.188290	 0.500000 
Sr10	 0.421643	 0.080494	 0.500000 
Ti11	 0.259263	 0.174244	 0.000000 
Sr12	 0.357584	 0.219540	 0.000000 
Ti13	 0.303457	 0.250790	 0.500000 
Sr14	 0.313390	 0.142994	 0.500000 
Ti15	 0.151010	 0.236744	 0.000000 
Sr16	 0.249331	 0.282040	 0.000000 
Ti17	 0.195204	 0.313290	 0.500000 
Sr18	 0.205137	 0.205494	 0.500000 
Ti19	 0.042757	 0.299244	 0.000000 
Sr20	 0.141078	 0.344540	 0.000000 
Ti21	 0.086951	 0.375790	 0.500000 
Sr22	 0.096883	 0.267994	 0.500000 
Sr23	 0.032824	 0.407040	 0.000000 
Ti24	 0.736470	 0.000790	 0.500000 
Ti25	 0.672411	 0.139837	 0.000000 
Sr26	 0.770732	 0.185134	 0.000000 
Ti27	 0.716605	 0.216384	 0.500000 
Sr28	 0.726538	 0.108587	 0.500000 
Ti29	 0.564158	 0.202337	 0.000000 
Sr30	 0.662479	 0.247634	 0.000000 
Ti31	 0.608352	 0.278884	 0.500000 
Sr32	 0.618284	 0.171087	 0.500000 
Ti33	 0.455905	 0.264837	 0.000000 
Sr34	 0.554225	 0.310134	 0.000000 
Ti35	 0.500099	 0.341384	 0.500000 
Sr36	 0.510031	 0.233587	 0.500000 
Ti37	 0.347652	 0.327337	 0.000000 
Sr38	 0.445972	 0.372634	 0.000000 
Ti39	 0.391846	 0.403884	 0.500000 
Sr40	 0.401778	 0.296087	 0.500000 
Ti41	 0.239398	 0.389837	 0.000000 
Sr42	 0.337719	 0.435134	 0.000000 
Ti43	 0.283593	 0.466384	 0.500000 
Sr44	 0.293525	 0.358587	 0.500000 
Ti45	 0.131145	 0.452337	 0.000000 
Sr46	 0.229466	 0.497634	 0.000000 
Ti47	 0.175339	 0.528884	 0.500000 
Sr48	 0.185272	 0.421087	 0.500000 
Ti49	 0.022892	 0.514837	 0.000000 
Sr50	 0.121213	 0.560134	 0.000000 
Ti51	 0.067086	 0.591384	 0.500000 
Sr52	 0.077019	 0.483587	 0.500000 
Ti53	 0.780664	 0.077337	 0.000000 
Sr54	 0.012960	 0.622634	 0.000000 
Ti55	 0.824858	 0.153884	 0.500000 
Ti56	 0.760799	 0.292930	 0.000000 
Sr57	 0.859120	 0.338227	 0.000000 
Ti58	 0.804994	 0.369477	 0.500000 
Sr59	 0.814926	 0.261680	 0.500000 
Ti60	 0.652546	 0.355430	 0.000000 
Sr61	 0.750867	 0.400727	 0.000000 
Ti62	 0.696740	 0.431977	 0.500000 
Sr63	 0.706673	 0.324180	 0.500000 
Ti64	 0.544293	 0.417930	 0.000000 
Sr65	 0.642614	 0.463227	 0.000000 
Ti66	 0.588487	 0.494477	 0.500000 
Sr67	 0.598420	 0.386680	 0.500000 
Ti68	 0.436040	 0.480430	 0.000000 
Sr69	 0.534361	 0.525727	 0.000000 
Ti70	 0.480234	 0.556977	 0.500000 
Sr71	 0.490166	 0.449180	 0.500000 
Ti72	 0.327787	 0.542930	 0.000000 
Sr73	 0.426107	 0.588227	 0.000000 
Ti74	 0.371981	 0.619477	 0.500000 
Sr75	 0.381913	 0.511680	 0.500000 
Ti76	 0.219534	 0.605430	 0.000000 
Sr77	 0.317854	 0.650727	 0.000000 
Ti78	 0.263728	 0.681977	 0.500000 
Sr79	 0.273660	 0.574180	 0.500000 
Ti80	 0.111280	 0.667930	 0.000000 
Sr81	 0.209601	 0.713227	 0.000000 
Ti82	 0.155475	 0.744477	 0.500000 
Sr83	 0.165407	 0.636680	 0.500000 
Ti84	 0.869053	 0.230430	 0.000000 
Sr85	 0.101348	 0.775727	 0.000000 
Ti86	 0.913247	 0.306977	 0.500000 
Sr87	 0.057154	 0.699180	 0.500000 
Ti88	 0.849188	 0.446023	 0.000000 
Sr89	 0.947509	 0.491320	 0.000000 
Ti90	 0.893382	 0.522570	 0.500000 
Sr91	 0.903314	 0.414773	 0.500000 
Ti92	 0.740935	 0.508523	 0.000000 
Sr93	 0.839255	 0.553820	 0.000000 
Ti94	 0.785129	 0.585070	 0.500000 
Sr95	 0.795061	 0.477273	 0.500000 
Ti96	 0.632681	 0.571023	 0.000000 
Sr97	 0.731002	 0.616320	 0.000000 
Ti98	 0.676876	 0.647570	 0.500000 
Sr99	 0.686808	 0.539773	 0.500000 
Ti100	 0.524428	 0.633523	 0.000000 
Sr101	 0.622749	 0.678820	 0.000000 
Ti102	 0.568622	 0.710070	 0.500000 
Sr103	 0.578555	 0.602273	 0.500000 
Ti104	 0.416175	 0.696023	 0.000000 
Sr105	 0.514496	 0.741320	 0.000000 
Ti106	 0.460369	 0.772570	 0.500000 
Sr107	 0.470302	 0.664773	 0.500000 
Ti108	 0.307922	 0.758523	 0.000000 
Sr109	 0.406243	 0.803820	 0.000000 
Ti110	 0.352116	 0.835070	 0.500000 
Sr111	 0.362048	 0.727273	 0.500000 
Ti112	 0.199669	 0.821023	 0.000000 
Sr113	 0.297989	 0.866320	 0.000000 
Ti114	 0.243863	 0.897570	 0.500000 
Sr115	 0.253795	 0.789773	 0.500000 
Ti116	 0.957441	 0.383523	 0.000000 
Sr117	 0.189736	 0.928820	 0.000000 
Sr118	 0.145542	 0.852273	 0.500000 
Ti119	 0.937576	 0.599116	 0.000000 
Ti120	 0.981770	 0.675663	 0.500000 
Sr121	 0.991703	 0.567866	 0.500000 
Ti122	 0.829323	 0.661616	 0.000000 
Sr123	 0.927644	 0.706913	 0.000000 
Ti124	 0.873517	 0.738163	 0.500000 
Sr125	 0.883450	 0.630366	 0.500000 
Ti126	 0.721070	 0.724116	 0.000000 
Sr127	 0.819391	 0.769413	 0.000000 
Ti128	 0.765264	 0.800663	 0.500000 
Sr129	 0.775196	 0.692866	 0.500000 
Ti130	 0.612817	 0.786616	 0.000000 
Sr131	 0.711137	 0.831913	 0.000000 
Ti132	 0.657011	 0.863163	 0.500000 
Sr133	 0.666943	 0.755366	 0.500000 
Ti134	 0.504563	 0.849116	 0.000000 
Sr135	 0.602884	 0.894413	 0.000000 
Ti136	 0.548758	 0.925663	 0.500000 
Sr137	 0.558690	 0.817866	 0.500000 
Ti138	 0.396310	 0.911616	 0.000000 
Sr139	 0.494631	 0.956913	 0.000000 
Ti140	 0.440504	 0.988163	 0.500000 
Sr141	 0.450437	 0.880366	 0.500000 
Ti142	 0.288057	 0.974116	 0.000000 
Sr143	 0.342184	 0.942866	 0.500000 
#                 ---end-of-data-block---
