data_Pt structure along [001] nx 5 ny 8 nz 1
_cell_length_a               31.240000
_cell_length_b               31.240000
_cell_length_c               5.543717
_cell_angle_alpha          90.000000
_cell_angle_beta           90.000000
_cell_angle_gamma          90.000000
_symmetry_cell_setting          Triclinic
_symmetry_space_group_name_H-M 'P 1' 
loop_
_atom_site_label
_atom_site_fract_x
_atom_site_fract_y
_atom_site_fract_z
Ti1	 0.767440	 0.002023	 0.000000 
Sr2	 0.850687	 0.071223	 0.000000 
Ti3	 0.790317	 0.087400	 0.500000 
Ti4	 0.646699	 0.034375	 0.000000 
Sr5	 0.729946	 0.103576	 0.000000 
Ti6	 0.669576	 0.119752	 0.500000 
Sr7	 0.707070	 0.018199	 0.500000 
Ti8	 0.525959	 0.066728	 0.000000 
Sr9	 0.609205	 0.135928	 0.000000 
Ti10	 0.548835	 0.152104	 0.500000 
Sr11	 0.586329	 0.050552	 0.500000 
Ti12	 0.405218	 0.099080	 0.000000 
Sr13	 0.488465	 0.168281	 0.000000 
Ti14	 0.428094	 0.184457	 0.500000 
Sr15	 0.465588	 0.082904	 0.500000 
Ti16	 0.284477	 0.131432	 0.000000 
Sr17	 0.367724	 0.200633	 0.000000 
Ti18	 0.307354	 0.216809	 0.500000 
Sr19	 0.344847	 0.115256	 0.500000 
Ti20	 0.163736	 0.163785	 0.000000 
Sr21	 0.246983	 0.232985	 0.000000 
Ti22	 0.186613	 0.249161	 0.500000 
Sr23	 0.224107	 0.147609	 0.500000 
Ti24	 0.042996	 0.196137	 0.000000 
Sr25	 0.126243	 0.265338	 0.000000 
Ti26	 0.065872	 0.281514	 0.500000 
Sr27	 0.103366	 0.179961	 0.500000 
Sr28	 0.005502	 0.297690	 0.000000 
Ti29	 0.813193	 0.172776	 0.000000 
Sr30	 0.896440	 0.241977	 0.000000 
Ti31	 0.836070	 0.258153	 0.500000 
Sr32	 0.873564	 0.156600	 0.500000 
Ti33	 0.692452	 0.205129	 0.000000 
Sr34	 0.775699	 0.274329	 0.000000 
Ti35	 0.715329	 0.290505	 0.500000 
Sr36	 0.752823	 0.188952	 0.500000 
Ti37	 0.571712	 0.237481	 0.000000 
Sr38	 0.654959	 0.306681	 0.000000 
Ti39	 0.594588	 0.322857	 0.500000 
Sr40	 0.632082	 0.221305	 0.500000 
Ti41	 0.450971	 0.269833	 0.000000 
Sr42	 0.534218	 0.339034	 0.000000 
Ti43	 0.473848	 0.355210	 0.500000 
Sr44	 0.511341	 0.253657	 0.500000 
Ti45	 0.330230	 0.302186	 0.000000 
Sr46	 0.413477	 0.371386	 0.000000 
Ti47	 0.353107	 0.387562	 0.500000 
Sr48	 0.390601	 0.286009	 0.500000 
Ti49	 0.209490	 0.334538	 0.000000 
Sr50	 0.292736	 0.403738	 0.000000 
Ti51	 0.232366	 0.419915	 0.500000 
Sr52	 0.269860	 0.318362	 0.500000 
Ti53	 0.088749	 0.366890	 0.000000 
Sr54	 0.171996	 0.436091	 0.000000 
Ti55	 0.111625	 0.452267	 0.500000 
Sr56	 0.149119	 0.350714	 0.500000 
Sr57	 0.051255	 0.468443	 0.000000 
Sr58	 0.028378	 0.383067	 0.500000 
Ti59	 0.858946	 0.343529	 0.000000 
Sr60	 0.942193	 0.412730	 0.000000 
Ti61	 0.881823	 0.428906	 0.500000 
Sr62	 0.919317	 0.327353	 0.500000 
Ti63	 0.738206	 0.375882	 0.000000 
Sr64	 0.821453	 0.445082	 0.000000 
Ti65	 0.761082	 0.461258	 0.500000 
Sr66	 0.798576	 0.359706	 0.500000 
Ti67	 0.617465	 0.408234	 0.000000 
Sr68	 0.700712	 0.477434	 0.000000 
Ti69	 0.640341	 0.493611	 0.500000 
Sr70	 0.677835	 0.392058	 0.500000 
Ti71	 0.496724	 0.440586	 0.000000 
Sr72	 0.579971	 0.509787	 0.000000 
Ti73	 0.519601	 0.525963	 0.500000 
Sr74	 0.557095	 0.424410	 0.500000 
Ti75	 0.375983	 0.472939	 0.000000 
Sr76	 0.459230	 0.542139	 0.000000 
Ti77	 0.398860	 0.558315	 0.500000 
Sr78	 0.436354	 0.456763	 0.500000 
Ti79	 0.255243	 0.505291	 0.000000 
Sr80	 0.338490	 0.574492	 0.000000 
Ti81	 0.278119	 0.590668	 0.500000 
Sr82	 0.315613	 0.489115	 0.500000 
Ti83	 0.134502	 0.537644	 0.000000 
Sr84	 0.217749	 0.606844	 0.000000 
Ti85	 0.157379	 0.623020	 0.500000 
Sr86	 0.194872	 0.521467	 0.500000 
Ti87	 0.013761	 0.569996	 0.000000 
Sr88	 0.097008	 0.639196	 0.000000 
Ti89	 0.036638	 0.655373	 0.500000 
Sr90	 0.074132	 0.553820	 0.500000 
Ti91	 0.904700	 0.514282	 0.000000 
Sr92	 0.987946	 0.583483	 0.000000 
Ti93	 0.927576	 0.599659	 0.500000 
Sr94	 0.965070	 0.498106	 0.500000 
Ti95	 0.783959	 0.546635	 0.000000 
Sr96	 0.867206	 0.615835	 0.000000 
Ti97	 0.806835	 0.632011	 0.500000 
Sr98	 0.844329	 0.530459	 0.500000 
Ti99	 0.663218	 0.578987	 0.000000 
Sr100	 0.746465	 0.648188	 0.000000 
Ti101	 0.686095	 0.664364	 0.500000 
Sr102	 0.723588	 0.562811	 0.500000 
Ti103	 0.542477	 0.611340	 0.000000 
Sr104	 0.625724	 0.680540	 0.000000 
Ti105	 0.565354	 0.696716	 0.500000 
Sr106	 0.602848	 0.595163	 0.500000 
Ti107	 0.421737	 0.643692	 0.000000 
Sr108	 0.504984	 0.712892	 0.000000 
Ti109	 0.444613	 0.729069	 0.500000 
Sr110	 0.482107	 0.627516	 0.500000 
Ti111	 0.300996	 0.676044	 0.000000 
Sr112	 0.384243	 0.745245	 0.000000 
Ti113	 0.323872	 0.761421	 0.500000 
Sr114	 0.361366	 0.659868	 0.500000 
Ti115	 0.180255	 0.708397	 0.000000 
Sr116	 0.263502	 0.777597	 0.000000 
Ti117	 0.203132	 0.793773	 0.500000 
Sr118	 0.240626	 0.692221	 0.500000 
Ti119	 0.059514	 0.740749	 0.000000 
Sr120	 0.142761	 0.809950	 0.000000 
Ti121	 0.082391	 0.826126	 0.500000 
Sr122	 0.119885	 0.724573	 0.500000 
Ti123	 0.950453	 0.685036	 0.000000 
Ti124	 0.973329	 0.770412	 0.500000 
Ti125	 0.829712	 0.717388	 0.000000 
Sr126	 0.912959	 0.786588	 0.000000 
Ti127	 0.852589	 0.802765	 0.500000 
Sr128	 0.890082	 0.701212	 0.500000 
Ti129	 0.708971	 0.749740	 0.000000 
Sr130	 0.792218	 0.818941	 0.000000 
Ti131	 0.731848	 0.835117	 0.500000 
Sr132	 0.769342	 0.733564	 0.500000 
Ti133	 0.588231	 0.782093	 0.000000 
Sr134	 0.671477	 0.851293	 0.000000 
Ti135	 0.611107	 0.867469	 0.500000 
Sr136	 0.648601	 0.765917	 0.500000 
Ti137	 0.467490	 0.814445	 0.000000 
Sr138	 0.550737	 0.883646	 0.000000 
Ti139	 0.490366	 0.899822	 0.500000 
Sr140	 0.527860	 0.798269	 0.500000 
Ti141	 0.346749	 0.846798	 0.000000 
Sr142	 0.429996	 0.915998	 0.000000 
Ti143	 0.369626	 0.932174	 0.500000 
Sr144	 0.407119	 0.830621	 0.500000 
Ti145	 0.226008	 0.879150	 0.000000 
Sr146	 0.309255	 0.948350	 0.000000 
Ti147	 0.248885	 0.964527	 0.500000 
Sr148	 0.286379	 0.862974	 0.500000 
Ti149	 0.105268	 0.911502	 0.000000 
Sr150	 0.188515	 0.980703	 0.000000 
Ti151	 0.128144	 0.996879	 0.500000 
Sr152	 0.165638	 0.895326	 0.500000 
#                 ---end-of-data-block---
