data_Pt structure along [001] nx 5 ny 8 nz 1
_cell_length_a               31.240000
_cell_length_b               31.240000
_cell_length_c               5.543717
_cell_angle_alpha          90.000000
_cell_angle_beta           90.000000
_cell_angle_gamma          90.000000
_symmetry_cell_setting          Triclinic
_symmetry_space_group_name_H-M 'P 1' 
loop_
_atom_site_label
_atom_site_fract_x
_atom_site_fract_y
_atom_site_fract_z
Ti1	 0.810850	 0.071935	 0.000000 
Sr2	 0.894097	 0.141136	 0.000000 
Ti3	 0.833726	 0.157312	 0.500000 
Sr4	 0.871220	 0.055759	 0.500000 
Ti5	 0.690109	 0.104288	 0.000000 
Sr6	 0.773356	 0.173488	 0.000000 
Ti7	 0.712986	 0.189664	 0.500000 
Sr8	 0.750479	 0.088112	 0.500000 
Ti9	 0.569368	 0.136640	 0.000000 
Sr10	 0.652615	 0.205841	 0.000000 
Ti11	 0.592245	 0.222017	 0.500000 
Sr12	 0.629739	 0.120464	 0.500000 
Ti13	 0.448628	 0.168993	 0.000000 
Sr14	 0.531875	 0.238193	 0.000000 
Ti15	 0.471504	 0.254369	 0.500000 
Sr16	 0.508998	 0.152816	 0.500000 
Ti17	 0.327887	 0.201345	 0.000000 
Sr18	 0.411134	 0.270545	 0.000000 
Ti19	 0.350763	 0.286722	 0.500000 
Sr20	 0.388257	 0.185169	 0.500000 
Ti21	 0.207146	 0.233697	 0.000000 
Sr22	 0.290393	 0.302898	 0.000000 
Ti23	 0.230023	 0.319074	 0.500000 
Sr24	 0.267517	 0.217521	 0.500000 
Ti25	 0.086405	 0.266050	 0.000000 
Sr26	 0.169652	 0.335250	 0.000000 
Ti27	 0.109282	 0.351426	 0.500000 
Sr28	 0.146776	 0.249874	 0.500000 
Sr29	 0.048912	 0.367603	 0.000000 
Sr30	 0.026035	 0.282226	 0.500000 
Ti31	 0.856603	 0.242689	 0.000000 
Sr32	 0.939850	 0.311889	 0.000000 
Ti33	 0.879480	 0.328065	 0.500000 
Sr34	 0.916973	 0.226512	 0.500000 
Ti35	 0.735862	 0.275041	 0.000000 
Sr36	 0.819109	 0.344241	 0.000000 
Ti37	 0.758739	 0.360418	 0.500000 
Sr38	 0.796233	 0.258865	 0.500000 
Ti39	 0.615122	 0.307393	 0.000000 
Sr40	 0.698368	 0.376594	 0.000000 
Ti41	 0.637998	 0.392770	 0.500000 
Sr42	 0.675492	 0.291217	 0.500000 
Ti43	 0.494381	 0.339746	 0.000000 
Sr44	 0.577628	 0.408946	 0.000000 
Ti45	 0.517257	 0.425122	 0.500000 
Sr46	 0.554751	 0.323570	 0.500000 
Ti47	 0.373640	 0.372098	 0.000000 
Sr48	 0.456887	 0.441299	 0.000000 
Ti49	 0.396517	 0.457475	 0.500000 
Sr50	 0.434010	 0.355922	 0.500000 
Ti51	 0.252899	 0.404451	 0.000000 
Sr52	 0.336146	 0.473651	 0.000000 
Ti53	 0.275776	 0.489827	 0.500000 
Sr54	 0.313270	 0.388274	 0.500000 
Ti55	 0.132159	 0.436803	 0.000000 
Sr56	 0.215406	 0.506003	 0.000000 
Ti57	 0.155035	 0.522180	 0.500000 
Sr58	 0.192529	 0.420627	 0.500000 
Ti59	 0.011418	 0.469155	 0.000000 
Sr60	 0.094665	 0.538356	 0.000000 
Ti61	 0.034294	 0.554532	 0.500000 
Sr62	 0.071788	 0.452979	 0.500000 
Ti63	 0.902356	 0.413442	 0.000000 
Sr64	 0.985603	 0.482642	 0.000000 
Ti65	 0.925233	 0.498818	 0.500000 
Sr66	 0.962727	 0.397266	 0.500000 
Ti67	 0.781615	 0.445794	 0.000000 
Sr68	 0.864862	 0.514995	 0.000000 
Ti69	 0.804492	 0.531171	 0.500000 
Sr70	 0.841986	 0.429618	 0.500000 
Ti71	 0.660875	 0.478147	 0.000000 
Sr72	 0.744122	 0.547347	 0.000000 
Ti73	 0.683751	 0.563523	 0.500000 
Sr74	 0.721245	 0.461970	 0.500000 
Ti75	 0.540134	 0.510499	 0.000000 
Sr76	 0.623381	 0.579699	 0.000000 
Ti77	 0.563011	 0.595876	 0.500000 
Sr78	 0.600504	 0.494323	 0.500000 
Ti79	 0.419393	 0.542851	 0.000000 
Sr80	 0.502640	 0.612052	 0.000000 
Ti81	 0.442270	 0.628228	 0.500000 
Sr82	 0.479764	 0.526675	 0.500000 
Ti83	 0.298652	 0.575204	 0.000000 
Sr84	 0.381899	 0.644404	 0.000000 
Ti85	 0.321529	 0.660580	 0.500000 
Sr86	 0.359023	 0.559028	 0.500000 
Ti87	 0.177912	 0.607556	 0.000000 
Sr88	 0.261159	 0.676757	 0.000000 
Ti89	 0.200788	 0.692933	 0.500000 
Sr90	 0.238282	 0.591380	 0.500000 
Ti91	 0.057171	 0.639909	 0.000000 
Sr92	 0.140418	 0.709109	 0.000000 
Ti93	 0.080048	 0.725285	 0.500000 
Sr94	 0.117541	 0.623732	 0.500000 
Ti95	 0.948109	 0.584195	 0.000000 
Ti96	 0.970986	 0.669572	 0.500000 
Ti97	 0.827369	 0.616547	 0.000000 
Sr98	 0.910616	 0.685748	 0.000000 
Ti99	 0.850245	 0.701924	 0.500000 
Sr100	 0.887739	 0.600371	 0.500000 
Ti101	 0.706628	 0.648900	 0.000000 
Sr102	 0.789875	 0.718100	 0.000000 
Ti103	 0.729504	 0.734276	 0.500000 
Sr104	 0.766998	 0.632724	 0.500000 
Ti105	 0.585887	 0.681252	 0.000000 
Sr106	 0.669134	 0.750453	 0.000000 
Ti107	 0.608764	 0.766629	 0.500000 
Sr108	 0.646257	 0.665076	 0.500000 
Ti109	 0.465146	 0.713605	 0.000000 
Sr110	 0.548393	 0.782805	 0.000000 
Ti111	 0.488023	 0.798981	 0.500000 
Sr112	 0.525517	 0.697428	 0.500000 
Ti113	 0.344406	 0.745957	 0.000000 
Sr114	 0.427653	 0.815157	 0.000000 
Ti115	 0.367282	 0.831334	 0.500000 
Sr116	 0.404776	 0.729781	 0.500000 
Ti117	 0.223665	 0.778309	 0.000000 
Sr118	 0.306912	 0.847510	 0.000000 
Ti119	 0.246542	 0.863686	 0.500000 
Sr120	 0.284035	 0.762133	 0.500000 
Ti121	 0.102924	 0.810662	 0.000000 
Sr122	 0.186171	 0.879862	 0.000000 
Ti123	 0.125801	 0.896038	 0.500000 
Sr124	 0.163295	 0.794485	 0.500000 
Ti125	 0.993862	 0.754948	 0.000000 
Ti126	 0.873122	 0.787301	 0.000000 
Sr127	 0.727603	 0.002735	 0.000000 
Ti128	 0.667232	 0.018911	 0.500000 
Sr129	 0.933492	 0.771124	 0.500000 
Ti130	 0.752381	 0.819653	 0.000000 
Sr131	 0.606862	 0.035087	 0.000000 
Ti132	 0.546492	 0.051264	 0.500000 
Sr133	 0.812751	 0.803477	 0.500000 
Ti134	 0.631640	 0.852005	 0.000000 
Sr135	 0.486121	 0.067440	 0.000000 
Ti136	 0.425751	 0.083616	 0.500000 
Sr137	 0.692011	 0.835829	 0.500000 
Ti138	 0.510900	 0.884358	 0.000000 
Sr139	 0.365381	 0.099792	 0.000000 
Ti140	 0.305010	 0.115968	 0.500000 
Sr141	 0.571270	 0.868182	 0.500000 
Ti142	 0.390159	 0.916710	 0.000000 
Sr143	 0.244640	 0.132145	 0.000000 
Ti144	 0.184270	 0.148321	 0.500000 
Sr145	 0.450529	 0.900534	 0.500000 
Ti146	 0.269418	 0.949062	 0.000000 
Sr147	 0.123899	 0.164497	 0.000000 
Ti148	 0.063529	 0.180673	 0.500000 
Sr149	 0.329788	 0.932886	 0.500000 
Ti150	 0.148677	 0.981415	 0.000000 
Sr151	 0.003158	 0.196849	 0.000000 
Sr152	 0.209048	 0.965239	 0.500000 
#                 ---end-of-data-block---
