data_Pt structure along [001] nx 5 ny 8 nz 1
_cell_length_a               31.240000
_cell_length_b               31.240000
_cell_length_c               5.543717
_cell_angle_alpha          90.000000
_cell_angle_beta           90.000000
_cell_angle_gamma          90.000000
_symmetry_cell_setting          Triclinic
_symmetry_space_group_name_H-M 'P 1' 
loop_
_atom_site_label
_atom_site_fract_x
_atom_site_fract_y
_atom_site_fract_z
Ti1	 0.786125	 0.064889	 0.000000 
Sr2	 0.869371	 0.134089	 0.000000 
Ti3	 0.809001	 0.150265	 0.500000 
Sr4	 0.846495	 0.048713	 0.500000 
Ti5	 0.665384	 0.097241	 0.000000 
Sr6	 0.748631	 0.166442	 0.000000 
Ti7	 0.688260	 0.182618	 0.500000 
Sr8	 0.725754	 0.081065	 0.500000 
Ti9	 0.544643	 0.129594	 0.000000 
Sr10	 0.627890	 0.198794	 0.000000 
Ti11	 0.567520	 0.214970	 0.500000 
Sr12	 0.605013	 0.113417	 0.500000 
Ti13	 0.423902	 0.161946	 0.000000 
Sr14	 0.507149	 0.231146	 0.000000 
Ti15	 0.446779	 0.247323	 0.500000 
Sr16	 0.484273	 0.145770	 0.500000 
Ti17	 0.303162	 0.194298	 0.000000 
Sr18	 0.386409	 0.263499	 0.000000 
Ti19	 0.326038	 0.279675	 0.500000 
Sr20	 0.363532	 0.178122	 0.500000 
Ti21	 0.182421	 0.226651	 0.000000 
Sr22	 0.265668	 0.295851	 0.000000 
Ti23	 0.205297	 0.312027	 0.500000 
Sr24	 0.242791	 0.210474	 0.500000 
Ti25	 0.061680	 0.259003	 0.000000 
Sr26	 0.144927	 0.328203	 0.000000 
Ti27	 0.084557	 0.344380	 0.500000 
Sr28	 0.122051	 0.242827	 0.500000 
Sr29	 0.024186	 0.360556	 0.000000 
Sr30	 0.001310	 0.275179	 0.500000 
Ti31	 0.831878	 0.235642	 0.000000 
Sr32	 0.915125	 0.304842	 0.000000 
Ti33	 0.854754	 0.321019	 0.500000 
Sr34	 0.892248	 0.219466	 0.500000 
Ti35	 0.711137	 0.267994	 0.000000 
Sr36	 0.794384	 0.337195	 0.000000 
Ti37	 0.734014	 0.353371	 0.500000 
Sr38	 0.771507	 0.251818	 0.500000 
Ti39	 0.590396	 0.300347	 0.000000 
Sr40	 0.673643	 0.369547	 0.000000 
Ti41	 0.613273	 0.385723	 0.500000 
Sr42	 0.650767	 0.284171	 0.500000 
Ti43	 0.469656	 0.332699	 0.000000 
Sr44	 0.552902	 0.401899	 0.000000 
Ti45	 0.492532	 0.418076	 0.500000 
Sr46	 0.530026	 0.316523	 0.500000 
Ti47	 0.348915	 0.365051	 0.000000 
Sr48	 0.432162	 0.434252	 0.000000 
Ti49	 0.371791	 0.450428	 0.500000 
Sr50	 0.409285	 0.348875	 0.500000 
Ti51	 0.228174	 0.397404	 0.000000 
Sr52	 0.311421	 0.466604	 0.000000 
Ti53	 0.251051	 0.482780	 0.500000 
Sr54	 0.288544	 0.381228	 0.500000 
Ti55	 0.107433	 0.429756	 0.000000 
Sr56	 0.190680	 0.498957	 0.000000 
Ti57	 0.130310	 0.515133	 0.500000 
Sr58	 0.167804	 0.413580	 0.500000 
Sr59	 0.069940	 0.531309	 0.000000 
Ti60	 0.009569	 0.547485	 0.500000 
Sr61	 0.047063	 0.445932	 0.500000 
Ti62	 0.877631	 0.406395	 0.000000 
Sr63	 0.960878	 0.475596	 0.000000 
Ti64	 0.900507	 0.491772	 0.500000 
Sr65	 0.938001	 0.390219	 0.500000 
Ti66	 0.756890	 0.438748	 0.000000 
Sr67	 0.840137	 0.507948	 0.000000 
Ti68	 0.779767	 0.524124	 0.500000 
Sr69	 0.817260	 0.422571	 0.500000 
Ti70	 0.636149	 0.471100	 0.000000 
Sr71	 0.719396	 0.540300	 0.000000 
Ti72	 0.659026	 0.556476	 0.500000 
Sr73	 0.696520	 0.454924	 0.500000 
Ti74	 0.515409	 0.503452	 0.000000 
Sr75	 0.598656	 0.572653	 0.000000 
Ti76	 0.538285	 0.588829	 0.500000 
Sr77	 0.575779	 0.487276	 0.500000 
Ti78	 0.394668	 0.535805	 0.000000 
Sr79	 0.477915	 0.605005	 0.000000 
Ti80	 0.417545	 0.621181	 0.500000 
Sr81	 0.455038	 0.519628	 0.500000 
Ti82	 0.273927	 0.568157	 0.000000 
Sr83	 0.357174	 0.637357	 0.000000 
Ti84	 0.296804	 0.653534	 0.500000 
Sr85	 0.334298	 0.551981	 0.500000 
Ti86	 0.153186	 0.600509	 0.000000 
Sr87	 0.236433	 0.669710	 0.000000 
Ti88	 0.176063	 0.685886	 0.500000 
Sr89	 0.213557	 0.584333	 0.500000 
Ti90	 0.032446	 0.632862	 0.000000 
Sr91	 0.115693	 0.702062	 0.000000 
Ti92	 0.055322	 0.718238	 0.500000 
Sr93	 0.092816	 0.616686	 0.500000 
Ti94	 0.923384	 0.577148	 0.000000 
Ti95	 0.946261	 0.662525	 0.500000 
Sr96	 0.983754	 0.560972	 0.500000 
Ti97	 0.802643	 0.609501	 0.000000 
Sr98	 0.885890	 0.678701	 0.000000 
Ti99	 0.825520	 0.694877	 0.500000 
Sr100	 0.863014	 0.593324	 0.500000 
Ti101	 0.681903	 0.641853	 0.000000 
Sr102	 0.765150	 0.711053	 0.000000 
Ti103	 0.704779	 0.727230	 0.500000 
Sr104	 0.742273	 0.625677	 0.500000 
Ti105	 0.561162	 0.674205	 0.000000 
Sr106	 0.644409	 0.743406	 0.000000 
Ti107	 0.584038	 0.759582	 0.500000 
Sr108	 0.621532	 0.658029	 0.500000 
Ti109	 0.440421	 0.706558	 0.000000 
Sr110	 0.523668	 0.775758	 0.000000 
Ti111	 0.463298	 0.791934	 0.500000 
Sr112	 0.500791	 0.690382	 0.500000 
Ti113	 0.319680	 0.738910	 0.000000 
Sr114	 0.402927	 0.808111	 0.000000 
Ti115	 0.342557	 0.824287	 0.500000 
Sr116	 0.380051	 0.722734	 0.500000 
Ti117	 0.198940	 0.771263	 0.000000 
Sr118	 0.282187	 0.840463	 0.000000 
Ti119	 0.221816	 0.856639	 0.500000 
Sr120	 0.259310	 0.755086	 0.500000 
Ti121	 0.078199	 0.803615	 0.000000 
Sr122	 0.161446	 0.872815	 0.000000 
Ti123	 0.101076	 0.888992	 0.500000 
Sr124	 0.138569	 0.787439	 0.500000 
Ti125	 0.969137	 0.747901	 0.000000 
Ti126	 0.848396	 0.780254	 0.000000 
Ti127	 0.642507	 0.011865	 0.500000 
Sr128	 0.908767	 0.764078	 0.500000 
Ti129	 0.727656	 0.812606	 0.000000 
Sr130	 0.582137	 0.028041	 0.000000 
Ti131	 0.521766	 0.044217	 0.500000 
Sr132	 0.788026	 0.796430	 0.500000 
Ti133	 0.606915	 0.844959	 0.000000 
Sr134	 0.461396	 0.060393	 0.000000 
Ti135	 0.401026	 0.076569	 0.500000 
Sr136	 0.667285	 0.828782	 0.500000 
Ti137	 0.486174	 0.877311	 0.000000 
Sr138	 0.340655	 0.092746	 0.000000 
Ti139	 0.280285	 0.108922	 0.500000 
Sr140	 0.546545	 0.861135	 0.500000 
Ti141	 0.365434	 0.909663	 0.000000 
Sr142	 0.219915	 0.125098	 0.000000 
Ti143	 0.159544	 0.141274	 0.500000 
Sr144	 0.425804	 0.893487	 0.500000 
Ti145	 0.244693	 0.942016	 0.000000 
Sr146	 0.099174	 0.157450	 0.000000 
Ti147	 0.038804	 0.173626	 0.500000 
Sr148	 0.305063	 0.925840	 0.500000 
Ti149	 0.123952	 0.974368	 0.000000 
Sr150	 0.184322	 0.958192	 0.500000 
#                 ---end-of-data-block---
