data_Pt structure along [001] nx 5 ny 8 nz 1
_cell_length_a               31.240000
_cell_length_b               31.240000
_cell_length_c               5.543717
_cell_angle_alpha          90.000000
_cell_angle_beta           90.000000
_cell_angle_gamma          90.000000
_symmetry_cell_setting          Triclinic
_symmetry_space_group_name_H-M 'P 1' 
loop_
_atom_site_label
_atom_site_fract_x
_atom_site_fract_y
_atom_site_fract_z
Ti1	 0.734584	 0.094625	 0.000000 
Sr2	 0.817831	 0.163826	 0.000000 
Ti3	 0.757461	 0.180002	 0.500000 
Sr4	 0.794955	 0.078449	 0.500000 
Ti5	 0.613844	 0.126978	 0.000000 
Sr6	 0.697091	 0.196178	 0.000000 
Ti7	 0.636720	 0.212354	 0.500000 
Sr8	 0.674214	 0.110801	 0.500000 
Ti9	 0.493103	 0.159330	 0.000000 
Sr10	 0.576350	 0.228530	 0.000000 
Ti11	 0.515980	 0.244707	 0.500000 
Sr12	 0.553473	 0.143154	 0.500000 
Ti13	 0.372362	 0.191682	 0.000000 
Sr14	 0.455609	 0.260883	 0.000000 
Ti15	 0.395239	 0.277059	 0.500000 
Sr16	 0.432733	 0.175506	 0.500000 
Ti17	 0.251622	 0.224035	 0.000000 
Sr18	 0.334868	 0.293235	 0.000000 
Ti19	 0.274498	 0.309411	 0.500000 
Sr20	 0.311992	 0.207859	 0.500000 
Ti21	 0.130881	 0.256387	 0.000000 
Sr22	 0.214128	 0.325587	 0.000000 
Ti23	 0.153757	 0.341764	 0.500000 
Sr24	 0.191251	 0.240211	 0.500000 
Ti25	 0.010140	 0.288739	 0.000000 
Sr26	 0.093387	 0.357940	 0.000000 
Ti27	 0.033017	 0.374116	 0.500000 
Sr28	 0.070510	 0.272563	 0.500000 
Ti29	 0.855325	 0.062273	 0.000000 
Ti30	 0.878202	 0.147649	 0.500000 
Ti31	 0.780338	 0.265378	 0.000000 
Sr32	 0.863585	 0.334579	 0.000000 
Ti33	 0.803214	 0.350755	 0.500000 
Sr34	 0.840708	 0.249202	 0.500000 
Ti35	 0.659597	 0.297731	 0.000000 
Sr36	 0.742844	 0.366931	 0.000000 
Ti37	 0.682473	 0.383107	 0.500000 
Sr38	 0.719967	 0.281555	 0.500000 
Ti39	 0.538856	 0.330083	 0.000000 
Sr40	 0.622103	 0.399284	 0.000000 
Ti41	 0.561733	 0.415460	 0.500000 
Sr42	 0.599227	 0.313907	 0.500000 
Ti43	 0.418115	 0.362435	 0.000000 
Sr44	 0.501362	 0.431636	 0.000000 
Ti45	 0.440992	 0.447812	 0.500000 
Sr46	 0.478486	 0.346259	 0.500000 
Ti47	 0.297375	 0.394788	 0.000000 
Sr48	 0.380622	 0.463988	 0.000000 
Ti49	 0.320251	 0.480164	 0.500000 
Sr50	 0.357745	 0.378612	 0.500000 
Ti51	 0.176634	 0.427140	 0.000000 
Sr52	 0.259881	 0.496341	 0.000000 
Ti53	 0.199511	 0.512517	 0.500000 
Sr54	 0.237004	 0.410964	 0.500000 
Ti55	 0.055893	 0.459493	 0.000000 
Sr56	 0.139140	 0.528693	 0.000000 
Ti57	 0.078770	 0.544869	 0.500000 
Sr58	 0.116264	 0.443316	 0.500000 
Ti59	 0.901078	 0.233026	 0.000000 
Sr60	 0.018399	 0.561045	 0.000000 
Ti61	 0.923955	 0.318403	 0.500000 
Ti62	 0.826091	 0.436132	 0.000000 
Sr63	 0.909338	 0.505332	 0.000000 
Ti64	 0.848967	 0.521508	 0.500000 
Sr65	 0.886461	 0.419955	 0.500000 
Ti66	 0.705350	 0.468484	 0.000000 
Sr67	 0.788597	 0.537684	 0.000000 
Ti68	 0.728227	 0.553861	 0.500000 
Sr69	 0.765720	 0.452308	 0.500000 
Ti70	 0.584609	 0.500836	 0.000000 
Sr71	 0.667856	 0.570037	 0.000000 
Ti72	 0.607486	 0.586213	 0.500000 
Sr73	 0.644980	 0.484660	 0.500000 
Ti74	 0.463869	 0.533189	 0.000000 
Sr75	 0.547116	 0.602389	 0.000000 
Ti76	 0.486745	 0.618565	 0.500000 
Sr77	 0.524239	 0.517012	 0.500000 
Ti78	 0.343128	 0.565541	 0.000000 
Sr79	 0.426375	 0.634741	 0.000000 
Ti80	 0.366004	 0.650918	 0.500000 
Sr81	 0.403498	 0.549365	 0.500000 
Ti82	 0.222387	 0.597893	 0.000000 
Sr83	 0.305634	 0.667094	 0.000000 
Ti84	 0.245264	 0.683270	 0.500000 
Sr85	 0.282758	 0.581717	 0.500000 
Ti86	 0.101646	 0.630246	 0.000000 
Sr87	 0.184893	 0.699446	 0.000000 
Ti88	 0.124523	 0.715622	 0.500000 
Sr89	 0.162017	 0.614070	 0.500000 
Ti90	 0.946832	 0.403779	 0.000000 
Sr91	 0.064153	 0.731799	 0.000000 
Ti92	 0.969708	 0.489156	 0.500000 
Sr93	 0.041276	 0.646422	 0.500000 
Ti94	 0.871844	 0.606885	 0.000000 
Sr95	 0.955091	 0.676085	 0.000000 
Ti96	 0.894721	 0.692261	 0.500000 
Sr97	 0.932214	 0.590709	 0.500000 
Ti98	 0.751103	 0.639237	 0.000000 
Sr99	 0.834350	 0.708437	 0.000000 
Ti100	 0.773980	 0.724614	 0.500000 
Sr101	 0.811474	 0.623061	 0.500000 
Ti102	 0.630363	 0.671589	 0.000000 
Sr103	 0.713609	 0.740790	 0.000000 
Ti104	 0.653239	 0.756966	 0.500000 
Sr105	 0.690733	 0.655413	 0.500000 
Ti106	 0.509622	 0.703942	 0.000000 
Sr107	 0.592869	 0.773142	 0.000000 
Ti108	 0.532498	 0.789318	 0.500000 
Sr109	 0.569992	 0.687766	 0.500000 
Ti110	 0.388881	 0.736294	 0.000000 
Sr111	 0.472128	 0.805495	 0.000000 
Ti112	 0.411758	 0.821671	 0.500000 
Sr113	 0.449251	 0.720118	 0.500000 
Ti114	 0.268140	 0.768647	 0.000000 
Sr115	 0.351387	 0.837847	 0.000000 
Ti116	 0.291017	 0.854023	 0.500000 
Sr117	 0.328511	 0.752470	 0.500000 
Ti118	 0.147400	 0.800999	 0.000000 
Sr119	 0.230647	 0.870199	 0.000000 
Ti120	 0.170276	 0.886376	 0.500000 
Sr121	 0.207770	 0.784823	 0.500000 
Ti122	 0.992585	 0.574532	 0.000000 
Sr123	 0.109906	 0.902552	 0.000000 
Sr124	 0.087029	 0.817175	 0.500000 
Ti125	 0.917597	 0.777638	 0.000000 
Ti126	 0.711708	 0.009249	 0.500000 
Sr127	 0.977968	 0.761462	 0.500000 
Ti128	 0.796856	 0.809990	 0.000000 
Sr129	 0.651337	 0.025425	 0.000000 
Ti130	 0.590967	 0.041601	 0.500000 
Sr131	 0.857227	 0.793814	 0.500000 
Ti132	 0.676116	 0.842343	 0.000000 
Sr133	 0.530597	 0.057777	 0.000000 
Ti134	 0.470226	 0.073953	 0.500000 
Sr135	 0.736486	 0.826166	 0.500000 
Ti136	 0.555375	 0.874695	 0.000000 
Sr137	 0.409856	 0.090130	 0.000000 
Ti138	 0.349486	 0.106306	 0.500000 
Sr139	 0.615745	 0.858519	 0.500000 
Ti140	 0.434634	 0.907047	 0.000000 
Sr141	 0.289115	 0.122482	 0.000000 
Ti142	 0.228745	 0.138658	 0.500000 
Sr143	 0.495005	 0.890871	 0.500000 
Ti144	 0.313894	 0.939400	 0.000000 
Sr145	 0.168375	 0.154834	 0.000000 
Ti146	 0.108004	 0.171010	 0.500000 
Sr147	 0.374264	 0.923224	 0.500000 
Ti148	 0.193153	 0.971752	 0.000000 
Sr149	 0.047634	 0.187187	 0.000000 
Sr150	 0.253523	 0.955576	 0.500000 
Sr151	 0.132782	 0.987928	 0.500000 
#                 ---end-of-data-block---
