data_NiO [110] nx 6 ny 2 nz 1
_cell_length_a               30.187800
_cell_length_b               30.187800
_cell_length_c               2.866200
_cell_angle_alpha          90.000000
_cell_angle_beta           90.000000
_cell_angle_gamma          90.000000
_symmetry_cell_setting          Triclinic
_symmetry_space_group_name_H-M 'P 1' 
loop_
_atom_site_label
_atom_site_fract_x
_atom_site_fract_y
_atom_site_fract_z
Mn1	 0.350486	 0.197253	 0.000000 
Mn2	 0.314701	 0.271280	 0.500000 
Mn3	 0.161066	 0.227458	 0.000000 
Mn4	 0.089496	 0.375518	 0.000000 
Mn5	 0.125280	 0.301490	 0.500000 
Mn6	 0.053713	 0.449547	 0.500000 
Mn7	 0.021056	 0.526683	 0.000000 
Mn8	 0.418926	 0.046089	 0.000000 
Mn9	 0.383142	 0.120117	 0.500000 
Mn10	 0.468337	 0.315104	 0.000000 
Mn11	 0.432552	 0.389132	 0.500000 
Mn12	 0.278918	 0.345309	 0.000000 
Mn13	 0.207347	 0.493369	 0.000000 
Mn14	 0.243131	 0.419341	 0.500000 
Mn15	 0.171564	 0.567398	 0.500000 
Mn16	 0.138907	 0.644534	 0.000000 
Mn17	 0.103123	 0.718561	 0.500000 
Mn18	 0.608347	 0.015880	 0.000000 
Mn19	 0.536777	 0.163940	 0.000000 
Mn20	 0.572560	 0.089911	 0.500000 
Mn21	 0.500993	 0.237968	 0.500000 
Mn22	 0.586188	 0.432955	 0.000000 
Mn23	 0.550403	 0.506983	 0.500000 
Mn24	 0.396769	 0.463160	 0.000000 
Mn25	 0.325199	 0.611220	 0.000000 
Mn26	 0.360982	 0.537192	 0.500000 
Mn27	 0.289415	 0.685249	 0.500000 
Mn28	 0.256759	 0.762385	 0.000000 
Mn29	 0.220974	 0.836412	 0.500000 
Mn30	 0.726198	 0.133731	 0.000000 
Mn31	 0.654628	 0.281791	 0.000000 
Mn32	 0.690411	 0.207763	 0.500000 
Mn33	 0.618844	 0.355820	 0.500000 
Mn34	 0.704039	 0.550806	 0.000000 
Mn35	 0.668254	 0.624834	 0.500000 
Mn36	 0.514620	 0.581011	 0.000000 
Mn37	 0.443050	 0.729072	 0.000000 
Mn38	 0.478833	 0.655043	 0.500000 
Mn39	 0.407266	 0.803100	 0.500000 
Mn40	 0.374610	 0.880236	 0.000000 
Mn41	 0.338825	 0.954263	 0.500000 
Mn42	 0.844049	 0.251582	 0.000000 
Mn43	 0.772479	 0.399642	 0.000000 
Mn44	 0.808263	 0.325614	 0.500000 
Mn45	 0.736696	 0.473671	 0.500000 
Mn46	 0.821890	 0.668658	 0.000000 
Mn47	 0.786106	 0.742685	 0.500000 
Mn48	 0.632471	 0.698862	 0.000000 
Mn49	 0.560901	 0.846923	 0.000000 
Mn50	 0.596684	 0.772894	 0.500000 
Mn51	 0.525117	 0.920951	 0.500000 
Mn52	 0.492461	 0.998087	 0.000000 
Mn53	 0.961900	 0.369433	 0.000000 
Mn54	 0.890330	 0.517493	 0.000000 
Mn55	 0.926114	 0.443465	 0.500000 
Mn56	 0.854547	 0.591522	 0.500000 
Mn57	 0.232635	 0.079402	 0.000000 
Mn58	 0.196850	 0.153429	 0.500000 
Mn59	 0.750322	 0.816714	 0.000000 
Mn60	 0.678752	 0.964774	 0.000000 
Mn61	 0.714535	 0.890745	 0.500000 
Mn62	 0.972398	 0.709373	 0.500000 
#                 ---end-of-data-block---
