data_Pt structure along [001] nx 11 ny 8 nz 1
_cell_length_a               31.360000
_cell_length_b               31.360000
_cell_length_c               2.771859
_cell_angle_alpha          90.000000
_cell_angle_beta           90.000000
_cell_angle_gamma          90.000000
_symmetry_cell_setting          Triclinic
_symmetry_space_group_name_H-M 'P 1' 
loop_
_atom_site_label
_atom_site_fract_x
_atom_site_fract_y
_atom_site_fract_z
Co1	 0.624158	 0.028971	 0.500000 
Co2	 0.552349	 0.002459	 0.000000 
Co3	 0.503417	 0.061324	 0.500000 
Co4	 0.431609	 0.034812	 0.000000 
Co5	 0.382677	 0.093676	 0.500000 
Co6	 0.310868	 0.067164	 0.000000 
Co7	 0.261936	 0.126029	 0.500000 
Co8	 0.190127	 0.099516	 0.000000 
Co9	 0.141195	 0.158381	 0.500000 
Co10	 0.069386	 0.131869	 0.000000 
Co11	 0.020454	 0.190733	 0.500000 
Co12	 0.816707	 0.023131	 0.000000 
Co13	 0.767775	 0.081996	 0.500000 
Co14	 0.695967	 0.055483	 0.000000 
Co15	 0.647035	 0.114348	 0.500000 
Co16	 0.575226	 0.087836	 0.000000 
Co17	 0.526294	 0.146700	 0.500000 
Co18	 0.454485	 0.120188	 0.000000 
Co19	 0.405553	 0.179053	 0.500000 
Co20	 0.333744	 0.152541	 0.000000 
Co21	 0.284812	 0.211405	 0.500000 
Co22	 0.213004	 0.184893	 0.000000 
Co23	 0.164072	 0.243757	 0.500000 
Co24	 0.092263	 0.217245	 0.000000 
Co25	 0.043331	 0.276110	 0.500000 
Co26	 0.888516	 0.049643	 0.500000 
Co27	 0.839584	 0.108508	 0.000000 
Co28	 0.790652	 0.167372	 0.500000 
Co29	 0.718843	 0.140860	 0.000000 
Co30	 0.669911	 0.199725	 0.500000 
Co31	 0.598102	 0.173212	 0.000000 
Co32	 0.549170	 0.232077	 0.500000 
Co33	 0.477362	 0.205565	 0.000000 
Co34	 0.428430	 0.264429	 0.500000 
Co35	 0.356621	 0.237917	 0.000000 
Co36	 0.307689	 0.296782	 0.500000 
Co37	 0.235880	 0.270270	 0.000000 
Co38	 0.186948	 0.329134	 0.500000 
Co39	 0.115140	 0.302622	 0.000000 
Co40	 0.066207	 0.361486	 0.500000 
Co41	 0.911393	 0.135020	 0.500000 
Co42	 0.862461	 0.193884	 0.000000 
Co43	 0.813528	 0.252749	 0.500000 
Co44	 0.741720	 0.226237	 0.000000 
Co45	 0.692788	 0.285101	 0.500000 
Co46	 0.620979	 0.258589	 0.000000 
Co47	 0.572047	 0.317454	 0.500000 
Co48	 0.500238	 0.290941	 0.000000 
Co49	 0.451306	 0.349806	 0.500000 
Co50	 0.379498	 0.323294	 0.000000 
Co51	 0.330566	 0.382158	 0.500000 
Co52	 0.258757	 0.355646	 0.000000 
Co53	 0.209825	 0.414511	 0.500000 
Co54	 0.138016	 0.387999	 0.000000 
Co55	 0.089084	 0.446863	 0.500000 
Co56	 0.017275	 0.420351	 0.000000 
Co57	 0.934269	 0.220396	 0.500000 
Co58	 0.885337	 0.279261	 0.000000 
Co59	 0.836405	 0.338125	 0.500000 
Co60	 0.764596	 0.311613	 0.000000 
Co61	 0.715664	 0.370478	 0.500000 
Co62	 0.643856	 0.343966	 0.000000 
Co63	 0.594924	 0.402830	 0.500000 
Co64	 0.523115	 0.376318	 0.000000 
Co65	 0.474183	 0.435182	 0.500000 
Co66	 0.402374	 0.408670	 0.000000 
Co67	 0.353442	 0.467535	 0.500000 
Co68	 0.281633	 0.441023	 0.000000 
Co69	 0.232701	 0.499887	 0.500000 
Co70	 0.160893	 0.473375	 0.000000 
Co71	 0.111961	 0.532240	 0.500000 
Co72	 0.040152	 0.505728	 0.000000 
Co73	 0.957146	 0.305773	 0.500000 
Co74	 0.908214	 0.364637	 0.000000 
Co75	 0.859282	 0.423502	 0.500000 
Co76	 0.787473	 0.396990	 0.000000 
Co77	 0.738541	 0.455854	 0.500000 
Co78	 0.666732	 0.429342	 0.000000 
Co79	 0.617800	 0.488207	 0.500000 
Co80	 0.545992	 0.461695	 0.000000 
Co81	 0.497059	 0.520559	 0.500000 
Co82	 0.425251	 0.494047	 0.000000 
Co83	 0.376319	 0.552911	 0.500000 
Co84	 0.304510	 0.526399	 0.000000 
Co85	 0.255578	 0.585264	 0.500000 
Co86	 0.183769	 0.558752	 0.000000 
Co87	 0.134837	 0.617616	 0.500000 
Co88	 0.063029	 0.591104	 0.000000 
Co89	 0.980022	 0.391150	 0.500000 
Co90	 0.931090	 0.450014	 0.000000 
Co91	 0.882158	 0.508879	 0.500000 
Co92	 0.810350	 0.482366	 0.000000 
Co93	 0.761417	 0.541231	 0.500000 
Co94	 0.689609	 0.514719	 0.000000 
Co95	 0.640677	 0.573583	 0.500000 
Co96	 0.568868	 0.547071	 0.000000 
Co97	 0.519936	 0.605936	 0.500000 
Co98	 0.448127	 0.579424	 0.000000 
Co99	 0.399195	 0.638288	 0.500000 
Co100	 0.327387	 0.611776	 0.000000 
Co101	 0.278455	 0.670640	 0.500000 
Co102	 0.206646	 0.644128	 0.000000 
Co103	 0.157714	 0.702993	 0.500000 
Co104	 0.085905	 0.676481	 0.000000 
Co105	 0.953967	 0.535391	 0.000000 
Co106	 0.905035	 0.594255	 0.500000 
Co107	 0.833226	 0.567743	 0.000000 
Co108	 0.784294	 0.626607	 0.500000 
Co109	 0.712485	 0.600095	 0.000000 
Co110	 0.663553	 0.658960	 0.500000 
Co111	 0.591745	 0.632448	 0.000000 
Co112	 0.542813	 0.691312	 0.500000 
Co113	 0.471004	 0.664800	 0.000000 
Co114	 0.422072	 0.723665	 0.500000 
Co115	 0.350263	 0.697153	 0.000000 
Co116	 0.301331	 0.756017	 0.500000 
Co117	 0.229523	 0.729505	 0.000000 
Co118	 0.180590	 0.788369	 0.500000 
Co119	 0.108782	 0.761857	 0.000000 
Co120	 0.976843	 0.620767	 0.000000 
Co121	 0.927911	 0.679632	 0.500000 
Co122	 0.856103	 0.653120	 0.000000 
Co123	 0.807171	 0.711984	 0.500000 
Co124	 0.735362	 0.685472	 0.000000 
Co125	 0.686430	 0.744336	 0.500000 
Co126	 0.614621	 0.717824	 0.000000 
Co127	 0.565689	 0.776689	 0.500000 
Co128	 0.493881	 0.750177	 0.000000 
Co129	 0.444948	 0.809041	 0.500000 
Co130	 0.373140	 0.782529	 0.000000 
Co131	 0.324208	 0.841394	 0.500000 
Co132	 0.252399	 0.814881	 0.000000 
Co133	 0.203467	 0.873746	 0.500000 
Co134	 0.131658	 0.847234	 0.000000 
Co135	 0.999720	 0.706144	 0.000000 
Co136	 0.950788	 0.765008	 0.500000 
Co137	 0.878979	 0.738496	 0.000000 
Co138	 0.830047	 0.797361	 0.500000 
Co139	 0.758239	 0.770849	 0.000000 
Co140	 0.709307	 0.829713	 0.500000 
Co141	 0.637498	 0.803201	 0.000000 
Co142	 0.588566	 0.862065	 0.500000 
Co143	 0.516757	 0.835553	 0.000000 
Co144	 0.467825	 0.894418	 0.500000 
Co145	 0.396016	 0.867906	 0.000000 
Co146	 0.347084	 0.926770	 0.500000 
Co147	 0.275276	 0.900258	 0.000000 
Co148	 0.226344	 0.959123	 0.500000 
Co149	 0.154535	 0.932610	 0.000000 
Co150	 0.973665	 0.850385	 0.500000 
Co151	 0.901856	 0.823873	 0.000000 
Co152	 0.852924	 0.882737	 0.500000 
Co153	 0.781115	 0.856225	 0.000000 
Co154	 0.732183	 0.915090	 0.500000 
Co155	 0.660374	 0.888578	 0.000000 
Co156	 0.611442	 0.947442	 0.500000 
Co157	 0.539634	 0.920930	 0.000000 
Co158	 0.490702	 0.979794	 0.500000 
Co159	 0.418893	 0.953282	 0.000000 
Co160	 0.298152	 0.985635	 0.000000 
#                 ---end-of-data-block---
