data_STO [001]8x8x1
_cell_length_a               31.240000
_cell_length_b               31.240000
_cell_length_c               3.905000
_cell_angle_alpha          90.000000
_cell_angle_beta           90.000000
_cell_angle_gamma          90.000000
_symmetry_cell_setting          Triclinic
_symmetry_space_group_name_H-M 'P 1' 
loop_
_atom_site_label
_atom_site_fract_x
_atom_site_fract_y
_atom_site_fract_z
Sr1	 0.106388	 0.046495	 0.000000 
Ti2	 0.168888	 0.108995	 0.500000 
Sr3	 0.106388	 0.171495	 0.000000 
Ti4	 0.168888	 0.233995	 0.500000 
Sr5	 0.106388	 0.296495	 0.000000 
Ti6	 0.168888	 0.358995	 0.500000 
Sr7	 0.106388	 0.421495	 0.000000 
Ti8	 0.168888	 0.483995	 0.500000 
Sr9	 0.106388	 0.546495	 0.000000 
Ti10	 0.168888	 0.608995	 0.500000 
Sr11	 0.106388	 0.671495	 0.000000 
Ti12	 0.168888	 0.733995	 0.500000 
Sr13	 0.106388	 0.796495	 0.000000 
Ti14	 0.168888	 0.858995	 0.500000 
Sr15	 0.106388	 0.921495	 0.000000 
Ti16	 0.168888	 0.983995	 0.500000 
Sr17	 0.231388	 0.046495	 0.000000 
Ti18	 0.293888	 0.108995	 0.500000 
Sr19	 0.231388	 0.171495	 0.000000 
Ti20	 0.293888	 0.233995	 0.500000 
Sr21	 0.231388	 0.296495	 0.000000 
Ti22	 0.293888	 0.358995	 0.500000 
Sr23	 0.231388	 0.421495	 0.000000 
Ti24	 0.293888	 0.483995	 0.500000 
Sr25	 0.231388	 0.546495	 0.000000 
Ti26	 0.293888	 0.608995	 0.500000 
Sr27	 0.231388	 0.671495	 0.000000 
Ti28	 0.293888	 0.733995	 0.500000 
Sr29	 0.231388	 0.796495	 0.000000 
Ti30	 0.293888	 0.858995	 0.500000 
Sr31	 0.231388	 0.921495	 0.000000 
Ti32	 0.293888	 0.983995	 0.500000 
Sr33	 0.356388	 0.046495	 0.000000 
Ti34	 0.418888	 0.108995	 0.500000 
Sr35	 0.356388	 0.171495	 0.000000 
Ti36	 0.418888	 0.233995	 0.500000 
Sr37	 0.356388	 0.296495	 0.000000 
Ti38	 0.418888	 0.358995	 0.500000 
Sr39	 0.356388	 0.421495	 0.000000 
Ti40	 0.418888	 0.483995	 0.500000 
Sr41	 0.356388	 0.546495	 0.000000 
Ti42	 0.418888	 0.608995	 0.500000 
Sr43	 0.356388	 0.671495	 0.000000 
Ti44	 0.418888	 0.733995	 0.500000 
Sr45	 0.356388	 0.796495	 0.000000 
Ti46	 0.418888	 0.858995	 0.500000 
Sr47	 0.356388	 0.921495	 0.000000 
Ti48	 0.418888	 0.983995	 0.500000 
Sr49	 0.481388	 0.046495	 0.000000 
Ti50	 0.543888	 0.108995	 0.500000 
Sr51	 0.481388	 0.171495	 0.000000 
Ti52	 0.543888	 0.233995	 0.500000 
Sr53	 0.481388	 0.296495	 0.000000 
Ti54	 0.543888	 0.358995	 0.500000 
Sr55	 0.481388	 0.421495	 0.000000 
Ti56	 0.543888	 0.483995	 0.500000 
Sr57	 0.481388	 0.546495	 0.000000 
Ti58	 0.543888	 0.608995	 0.500000 
Sr59	 0.481388	 0.671495	 0.000000 
Ti60	 0.543888	 0.733995	 0.500000 
Sr61	 0.481388	 0.796495	 0.000000 
Ti62	 0.543888	 0.858995	 0.500000 
Sr63	 0.481388	 0.921495	 0.000000 
Ti64	 0.543888	 0.983995	 0.500000 
Sr65	 0.606388	 0.046495	 0.000000 
Ti66	 0.668888	 0.108995	 0.500000 
Sr67	 0.606388	 0.171495	 0.000000 
Ti68	 0.668888	 0.233995	 0.500000 
Sr69	 0.606388	 0.296495	 0.000000 
Ti70	 0.668888	 0.358995	 0.500000 
Sr71	 0.606388	 0.421495	 0.000000 
Ti72	 0.668888	 0.483995	 0.500000 
Sr73	 0.606388	 0.546495	 0.000000 
Ti74	 0.668888	 0.608995	 0.500000 
Sr75	 0.606388	 0.671495	 0.000000 
Ti76	 0.668888	 0.733995	 0.500000 
Sr77	 0.606388	 0.796495	 0.000000 
Ti78	 0.668888	 0.858995	 0.500000 
Sr79	 0.606388	 0.921495	 0.000000 
Ti80	 0.668888	 0.983995	 0.500000 
Sr81	 0.731388	 0.046495	 0.000000 
Ti82	 0.793888	 0.108995	 0.500000 
Sr83	 0.731388	 0.171495	 0.000000 
Ti84	 0.793888	 0.233995	 0.500000 
Sr85	 0.731388	 0.296495	 0.000000 
Ti86	 0.793888	 0.358995	 0.500000 
Sr87	 0.731388	 0.421495	 0.000000 
Ti88	 0.793888	 0.483995	 0.500000 
Sr89	 0.731388	 0.546495	 0.000000 
Ti90	 0.793888	 0.608995	 0.500000 
Sr91	 0.731388	 0.671495	 0.000000 
Ti92	 0.793888	 0.733995	 0.500000 
Sr93	 0.731388	 0.796495	 0.000000 
Ti94	 0.793888	 0.858995	 0.500000 
Sr95	 0.731388	 0.921495	 0.000000 
Ti96	 0.793888	 0.983995	 0.500000 
Sr97	 0.856388	 0.046495	 0.000000 
Ti98	 0.918888	 0.108995	 0.500000 
Sr99	 0.856388	 0.171495	 0.000000 
Ti100	 0.918888	 0.233995	 0.500000 
Sr101	 0.856388	 0.296495	 0.000000 
Ti102	 0.918888	 0.358995	 0.500000 
Sr103	 0.856388	 0.421495	 0.000000 
Ti104	 0.918888	 0.483995	 0.500000 
Sr105	 0.856388	 0.546495	 0.000000 
Ti106	 0.918888	 0.608995	 0.500000 
Sr107	 0.856388	 0.671495	 0.000000 
Ti108	 0.918888	 0.733995	 0.500000 
Sr109	 0.856388	 0.796495	 0.000000 
Ti110	 0.918888	 0.858995	 0.500000 
Sr111	 0.856388	 0.921495	 0.000000 
Ti112	 0.918888	 0.983995	 0.500000 
Sr113	 0.981388	 0.046495	 0.000000 
Ti114	 0.043888	 0.108995	 0.500000 
Sr115	 0.981388	 0.171495	 0.000000 
Ti116	 0.043888	 0.233995	 0.500000 
Sr117	 0.981388	 0.296495	 0.000000 
Ti118	 0.043888	 0.358995	 0.500000 
Sr119	 0.981388	 0.421495	 0.000000 
Ti120	 0.043888	 0.483995	 0.500000 
Sr121	 0.981388	 0.546495	 0.000000 
Ti122	 0.043888	 0.608995	 0.500000 
Sr123	 0.981388	 0.671495	 0.000000 
Ti124	 0.043888	 0.733995	 0.500000 
Sr125	 0.981388	 0.796495	 0.000000 
Ti126	 0.043888	 0.858995	 0.500000 
Sr127	 0.981388	 0.921495	 0.000000 
Ti128	 0.043888	 0.983995	 0.500000 
#                 ---end-of-data-block---
