data_STO [001]8x8x1
_cell_length_a               31.240000
_cell_length_b               31.240000
_cell_length_c               3.905000
_cell_angle_alpha          90.000000
_cell_angle_beta           90.000000
_cell_angle_gamma          90.000000
_symmetry_cell_setting          Triclinic
_symmetry_space_group_name_H-M 'P 1' 
loop_
_atom_site_label
_atom_site_fract_x
_atom_site_fract_y
_atom_site_fract_z
Ti1	 0.771637	 0.030955	 0.500000 
Ti2	 0.650896	 0.063307	 0.500000 
Sr3	 0.574350	 0.019113	 0.000000 
Ti4	 0.530156	 0.095659	 0.500000 
Sr5	 0.453609	 0.051465	 0.000000 
Ti6	 0.409415	 0.128012	 0.500000 
Sr7	 0.332868	 0.083817	 0.000000 
Ti8	 0.288674	 0.160364	 0.500000 
Sr9	 0.212128	 0.116170	 0.000000 
Ti10	 0.167933	 0.192716	 0.500000 
Sr11	 0.091387	 0.148522	 0.000000 
Ti12	 0.047193	 0.225069	 0.500000 
Sr13	 0.848184	 0.075149	 0.000000 
Ti14	 0.803989	 0.151695	 0.500000 
Sr15	 0.727443	 0.107501	 0.000000 
Ti16	 0.683249	 0.184048	 0.500000 
Sr17	 0.606702	 0.139853	 0.000000 
Ti18	 0.562508	 0.216400	 0.500000 
Sr19	 0.485961	 0.172206	 0.000000 
Ti20	 0.441767	 0.248752	 0.500000 
Sr21	 0.365221	 0.204558	 0.000000 
Ti22	 0.321026	 0.281105	 0.500000 
Sr23	 0.244480	 0.236911	 0.000000 
Ti24	 0.200286	 0.313457	 0.500000 
Sr25	 0.123739	 0.269263	 0.000000 
Ti26	 0.079545	 0.345810	 0.500000 
Sr27	 0.002998	 0.301615	 0.000000 
Sr28	 0.880536	 0.195889	 0.000000 
Ti29	 0.836342	 0.272436	 0.500000 
Sr30	 0.759795	 0.228242	 0.000000 
Ti31	 0.715601	 0.304788	 0.500000 
Sr32	 0.639055	 0.260594	 0.000000 
Ti33	 0.594860	 0.337141	 0.500000 
Sr34	 0.518314	 0.292947	 0.000000 
Ti35	 0.474120	 0.369493	 0.500000 
Sr36	 0.397573	 0.325299	 0.000000 
Ti37	 0.353379	 0.401846	 0.500000 
Sr38	 0.276832	 0.357651	 0.000000 
Ti39	 0.232638	 0.434198	 0.500000 
Sr40	 0.156092	 0.390004	 0.000000 
Ti41	 0.111897	 0.466550	 0.500000 
Sr42	 0.035351	 0.422356	 0.000000 
Sr43	 0.912888	 0.316630	 0.000000 
Ti44	 0.868694	 0.393177	 0.500000 
Sr45	 0.792148	 0.348983	 0.000000 
Ti46	 0.747953	 0.425529	 0.500000 
Sr47	 0.671407	 0.381335	 0.000000 
Ti48	 0.627213	 0.457881	 0.500000 
Sr49	 0.550666	 0.413687	 0.000000 
Ti50	 0.506472	 0.490234	 0.500000 
Sr51	 0.429925	 0.446040	 0.000000 
Ti52	 0.385731	 0.522586	 0.500000 
Sr53	 0.309185	 0.478392	 0.000000 
Ti54	 0.264991	 0.554939	 0.500000 
Sr55	 0.188444	 0.510744	 0.000000 
Ti56	 0.144250	 0.587291	 0.500000 
Sr57	 0.067703	 0.543097	 0.000000 
Ti58	 0.023509	 0.619643	 0.500000 
Sr59	 0.945241	 0.437371	 0.000000 
Ti60	 0.901047	 0.513917	 0.500000 
Sr61	 0.824500	 0.469723	 0.000000 
Ti62	 0.780306	 0.546270	 0.500000 
Sr63	 0.703759	 0.502076	 0.000000 
Ti64	 0.659565	 0.578622	 0.500000 
Sr65	 0.583019	 0.534428	 0.000000 
Ti66	 0.538824	 0.610975	 0.500000 
Sr67	 0.462278	 0.566780	 0.000000 
Ti68	 0.418084	 0.643327	 0.500000 
Sr69	 0.341537	 0.599133	 0.000000 
Ti70	 0.297343	 0.675679	 0.500000 
Sr71	 0.220796	 0.631485	 0.000000 
Ti72	 0.176602	 0.708032	 0.500000 
Sr73	 0.100056	 0.663838	 0.000000 
Ti74	 0.055861	 0.740384	 0.500000 
Sr75	 0.977593	 0.558112	 0.000000 
Ti76	 0.933399	 0.634658	 0.500000 
Sr77	 0.856852	 0.590464	 0.000000 
Ti78	 0.812658	 0.667011	 0.500000 
Sr79	 0.736112	 0.622816	 0.000000 
Ti80	 0.691917	 0.699363	 0.500000 
Sr81	 0.615371	 0.655169	 0.000000 
Ti82	 0.571177	 0.731715	 0.500000 
Sr83	 0.494630	 0.687521	 0.000000 
Ti84	 0.450436	 0.764068	 0.500000 
Sr85	 0.373889	 0.719874	 0.000000 
Ti86	 0.329695	 0.796420	 0.500000 
Sr87	 0.253149	 0.752226	 0.000000 
Ti88	 0.208955	 0.828772	 0.500000 
Sr89	 0.132408	 0.784578	 0.000000 
Ti90	 0.088214	 0.861125	 0.500000 
Ti91	 0.965751	 0.755399	 0.500000 
Sr92	 0.889205	 0.711205	 0.000000 
Ti93	 0.845011	 0.787751	 0.500000 
Sr94	 0.768464	 0.743557	 0.000000 
Ti95	 0.724270	 0.820104	 0.500000 
Sr96	 0.647723	 0.775909	 0.000000 
Ti97	 0.603529	 0.852456	 0.500000 
Sr98	 0.526983	 0.808262	 0.000000 
Ti99	 0.482788	 0.884808	 0.500000 
Sr100	 0.406242	 0.840614	 0.000000 
Ti101	 0.362048	 0.917161	 0.500000 
Sr102	 0.285501	 0.872967	 0.000000 
Ti103	 0.241307	 0.949513	 0.500000 
Sr104	 0.164760	 0.905319	 0.000000 
Ti105	 0.120566	 0.981866	 0.500000 
Ti106	 0.998104	 0.876140	 0.500000 
Sr107	 0.921557	 0.831945	 0.000000 
Ti108	 0.877363	 0.908492	 0.500000 
Sr109	 0.800816	 0.864298	 0.000000 
Ti110	 0.756622	 0.940844	 0.500000 
Sr111	 0.680076	 0.896650	 0.000000 
Ti112	 0.635882	 0.973197	 0.500000 
Sr113	 0.559335	 0.929003	 0.000000 
Sr114	 0.438594	 0.961355	 0.000000 
Sr115	 0.317853	 0.993707	 0.000000 
#                 ---end-of-data-block---
