data_STO [001]8x8x1
_cell_length_a               31.240000
_cell_length_b               31.240000
_cell_length_c               3.905000
_cell_angle_alpha          90.000000
_cell_angle_beta           90.000000
_cell_angle_gamma          90.000000
_symmetry_cell_setting          Triclinic
_symmetry_space_group_name_H-M 'P 1' 
loop_
_atom_site_label
_atom_site_fract_x
_atom_site_fract_y
_atom_site_fract_z
Ti1	 0.701629	 0.025855	 0.500000 
Ti2	 0.580889	 0.058208	 0.500000 
Sr3	 0.504342	 0.014014	 0.000000 
Ti4	 0.460148	 0.090560	 0.500000 
Sr5	 0.383601	 0.046366	 0.000000 
Ti6	 0.339407	 0.122913	 0.500000 
Sr7	 0.262861	 0.078718	 0.000000 
Ti8	 0.218667	 0.155265	 0.500000 
Sr9	 0.142120	 0.111071	 0.000000 
Ti10	 0.097926	 0.187617	 0.500000 
Sr11	 0.021379	 0.143423	 0.000000 
Sr12	 0.778176	 0.070050	 0.000000 
Ti13	 0.733982	 0.146596	 0.500000 
Sr14	 0.657435	 0.102402	 0.000000 
Ti15	 0.613241	 0.178948	 0.500000 
Sr16	 0.536695	 0.134754	 0.000000 
Ti17	 0.492500	 0.211301	 0.500000 
Sr18	 0.415954	 0.167107	 0.000000 
Ti19	 0.371760	 0.243653	 0.500000 
Sr20	 0.295213	 0.199459	 0.000000 
Ti21	 0.251019	 0.276006	 0.500000 
Sr22	 0.174472	 0.231811	 0.000000 
Ti23	 0.130278	 0.308358	 0.500000 
Sr24	 0.053732	 0.264164	 0.000000 
Ti25	 0.009538	 0.340710	 0.500000 
Ti26	 0.854723	 0.114244	 0.500000 
Sr27	 0.810528	 0.190790	 0.000000 
Ti28	 0.766334	 0.267337	 0.500000 
Sr29	 0.689788	 0.223143	 0.000000 
Ti30	 0.645594	 0.299689	 0.500000 
Sr31	 0.569047	 0.255495	 0.000000 
Ti32	 0.524853	 0.332042	 0.500000 
Sr33	 0.448306	 0.287847	 0.000000 
Ti34	 0.404112	 0.364394	 0.500000 
Sr35	 0.327566	 0.320200	 0.000000 
Ti36	 0.283371	 0.396746	 0.500000 
Sr37	 0.206825	 0.352552	 0.000000 
Ti38	 0.162631	 0.429099	 0.500000 
Sr39	 0.086084	 0.384905	 0.000000 
Ti40	 0.041890	 0.461451	 0.500000 
Ti41	 0.887075	 0.234984	 0.500000 
Sr42	 0.842881	 0.311531	 0.000000 
Ti43	 0.798687	 0.388078	 0.500000 
Sr44	 0.722140	 0.343883	 0.000000 
Ti45	 0.677946	 0.420430	 0.500000 
Sr46	 0.601399	 0.376236	 0.000000 
Ti47	 0.557205	 0.452782	 0.500000 
Sr48	 0.480659	 0.408588	 0.000000 
Ti49	 0.436464	 0.485135	 0.500000 
Sr50	 0.359918	 0.440941	 0.000000 
Ti51	 0.315724	 0.517487	 0.500000 
Sr52	 0.239177	 0.473293	 0.000000 
Ti53	 0.194983	 0.549839	 0.500000 
Sr54	 0.118436	 0.505645	 0.000000 
Ti55	 0.074242	 0.582192	 0.500000 
Ti56	 0.919427	 0.355725	 0.500000 
Sr57	 0.875233	 0.432272	 0.000000 
Ti58	 0.831039	 0.508818	 0.500000 
Sr59	 0.754492	 0.464624	 0.000000 
Ti60	 0.710298	 0.541171	 0.500000 
Sr61	 0.633752	 0.496977	 0.000000 
Ti62	 0.589558	 0.573523	 0.500000 
Sr63	 0.513011	 0.529329	 0.000000 
Ti64	 0.468817	 0.605875	 0.500000 
Sr65	 0.392270	 0.561681	 0.000000 
Ti66	 0.348076	 0.638228	 0.500000 
Sr67	 0.271530	 0.594034	 0.000000 
Ti68	 0.227335	 0.670580	 0.500000 
Sr69	 0.150789	 0.626386	 0.000000 
Ti70	 0.106595	 0.702933	 0.500000 
Sr71	 0.030048	 0.658738	 0.000000 
Ti72	 0.951780	 0.476466	 0.500000 
Sr73	 0.907586	 0.553012	 0.000000 
Ti74	 0.863391	 0.629559	 0.500000 
Sr75	 0.786845	 0.585365	 0.000000 
Ti76	 0.742651	 0.661911	 0.500000 
Sr77	 0.666104	 0.617717	 0.000000 
Ti78	 0.621910	 0.694264	 0.500000 
Sr79	 0.545363	 0.650070	 0.000000 
Ti80	 0.501169	 0.726616	 0.500000 
Sr81	 0.424623	 0.682422	 0.000000 
Ti82	 0.380428	 0.758969	 0.500000 
Sr83	 0.303882	 0.714774	 0.000000 
Ti84	 0.259688	 0.791321	 0.500000 
Sr85	 0.183141	 0.747127	 0.000000 
Ti86	 0.138947	 0.823673	 0.500000 
Sr87	 0.062400	 0.779479	 0.000000 
Ti88	 0.984132	 0.597207	 0.500000 
Sr89	 0.939938	 0.673753	 0.000000 
Ti90	 0.895744	 0.750300	 0.500000 
Sr91	 0.819197	 0.706106	 0.000000 
Ti92	 0.775003	 0.782652	 0.500000 
Sr93	 0.698456	 0.738458	 0.000000 
Ti94	 0.654262	 0.815005	 0.500000 
Sr95	 0.577716	 0.770810	 0.000000 
Ti96	 0.533522	 0.847357	 0.500000 
Sr97	 0.456975	 0.803163	 0.000000 
Ti98	 0.412781	 0.879709	 0.500000 
Sr99	 0.336234	 0.835515	 0.000000 
Ti100	 0.292040	 0.912062	 0.500000 
Sr101	 0.215494	 0.867867	 0.000000 
Ti102	 0.171299	 0.944414	 0.500000 
Sr103	 0.094753	 0.900220	 0.000000 
Sr104	 0.972290	 0.794494	 0.000000 
Ti105	 0.928096	 0.871040	 0.500000 
Sr106	 0.851550	 0.826846	 0.000000 
Ti107	 0.807355	 0.903393	 0.500000 
Sr108	 0.730809	 0.859199	 0.000000 
Ti109	 0.686615	 0.935745	 0.500000 
Sr110	 0.610068	 0.891551	 0.000000 
Ti111	 0.565874	 0.968098	 0.500000 
Sr112	 0.489327	 0.923903	 0.000000 
Sr113	 0.368587	 0.956256	 0.000000 
Sr114	 0.247846	 0.988608	 0.000000 
#                 ---end-of-data-block---
