data_Single Layer of MoS2nx 10 ny 6 nz 1
_cell_length_a               32.423991
_cell_length_b               32.423991
_cell_length_c               3.080000
_cell_angle_alpha          90.000000
_cell_angle_beta           90.000000
_cell_angle_gamma          90.000000
_symmetry_cell_setting          Triclinic
_symmetry_space_group_name_H-M 'P 1' 
loop_
_atom_site_label
_atom_site_fract_x
_atom_site_fract_y
_atom_site_fract_z
Mo1	 0.183104	 0.035712	 0.500000 
S2	 0.236766	 0.021334	 1.000000 
S3	 0.236766	 0.021334	 0.000000 
S4	 0.168725	 0.089375	 1.000000 
S5	 0.168725	 0.089375	 0.000000 
Mo6	 0.139967	 0.196700	 0.500000 
Mo7	 0.208009	 0.128659	 0.500000 
S8	 0.193630	 0.182321	 1.000000 
S9	 0.193630	 0.182321	 0.000000 
S10	 0.125589	 0.250363	 1.000000 
S11	 0.125589	 0.250363	 0.000000 
Mo12	 0.096831	 0.357688	 0.500000 
Mo13	 0.164872	 0.289646	 0.500000 
S14	 0.150493	 0.343309	 1.000000 
S15	 0.150493	 0.343309	 0.000000 
S16	 0.082452	 0.411350	 1.000000 
S17	 0.082452	 0.411350	 0.000000 
Mo18	 0.053694	 0.518675	 0.500000 
Mo19	 0.121736	 0.450634	 0.500000 
S20	 0.107357	 0.504297	 1.000000 
S21	 0.107357	 0.504297	 0.000000 
S22	 0.039316	 0.572338	 1.000000 
S23	 0.039316	 0.572338	 0.000000 
Mo24	 0.010558	 0.679663	 0.500000 
Mo25	 0.078599	 0.611622	 0.500000 
S26	 0.064220	 0.665284	 1.000000 
S27	 0.064220	 0.665284	 0.000000 
Mo28	 0.035463	 0.772609	 0.500000 
S29	 0.021084	 0.826272	 1.000000 
S30	 0.021084	 0.826272	 0.000000 
Mo31	 0.276050	 0.060617	 0.500000 
S32	 0.329713	 0.046239	 1.000000 
S33	 0.329713	 0.046239	 0.000000 
S34	 0.261671	 0.114280	 1.000000 
S35	 0.261671	 0.114280	 0.000000 
Mo36	 0.232914	 0.221605	 0.500000 
Mo37	 0.300955	 0.153564	 0.500000 
S38	 0.286576	 0.207226	 1.000000 
S39	 0.286576	 0.207226	 0.000000 
S40	 0.218535	 0.275268	 1.000000 
S41	 0.218535	 0.275268	 0.000000 
Mo42	 0.189777	 0.382593	 0.500000 
Mo43	 0.257818	 0.314551	 0.500000 
S44	 0.243440	 0.368214	 1.000000 
S45	 0.243440	 0.368214	 0.000000 
S46	 0.175398	 0.436255	 1.000000 
S47	 0.175398	 0.436255	 0.000000 
Mo48	 0.146641	 0.543580	 0.500000 
Mo49	 0.214682	 0.475539	 0.500000 
S50	 0.200303	 0.529201	 1.000000 
S51	 0.200303	 0.529201	 0.000000 
S52	 0.132262	 0.597243	 1.000000 
S53	 0.132262	 0.597243	 0.000000 
Mo54	 0.103504	 0.704568	 0.500000 
Mo55	 0.171545	 0.636527	 0.500000 
S56	 0.157167	 0.690189	 1.000000 
S57	 0.157167	 0.690189	 0.000000 
S58	 0.089125	 0.758230	 1.000000 
S59	 0.089125	 0.758230	 0.000000 
Mo60	 0.060368	 0.865556	 0.500000 
Mo61	 0.128409	 0.797514	 0.500000 
S62	 0.114030	 0.851177	 1.000000 
S63	 0.114030	 0.851177	 0.000000 
Mo64	 0.368996	 0.085522	 0.500000 
Mo65	 0.437038	 0.017481	 0.500000 
S66	 0.422659	 0.071143	 1.000000 
S67	 0.422659	 0.071143	 0.000000 
S68	 0.354618	 0.139185	 1.000000 
S69	 0.354618	 0.139185	 0.000000 
Mo70	 0.325860	 0.246510	 0.500000 
Mo71	 0.393901	 0.178469	 0.500000 
S72	 0.379522	 0.232131	 1.000000 
S73	 0.379522	 0.232131	 0.000000 
S74	 0.311481	 0.300172	 1.000000 
S75	 0.311481	 0.300172	 0.000000 
Mo76	 0.282723	 0.407498	 0.500000 
Mo77	 0.350765	 0.339456	 0.500000 
S78	 0.336386	 0.393119	 1.000000 
S79	 0.336386	 0.393119	 0.000000 
S80	 0.268345	 0.461160	 1.000000 
S81	 0.268345	 0.461160	 0.000000 
Mo82	 0.239587	 0.568485	 0.500000 
Mo83	 0.307628	 0.500444	 0.500000 
S84	 0.293249	 0.554106	 1.000000 
S85	 0.293249	 0.554106	 0.000000 
S86	 0.225208	 0.622148	 1.000000 
S87	 0.225208	 0.622148	 0.000000 
Mo88	 0.196450	 0.729473	 0.500000 
Mo89	 0.264492	 0.661431	 0.500000 
S90	 0.250113	 0.715094	 1.000000 
S91	 0.250113	 0.715094	 0.000000 
S92	 0.182072	 0.783135	 1.000000 
S93	 0.182072	 0.783135	 0.000000 
Mo94	 0.153314	 0.890460	 0.500000 
Mo95	 0.221355	 0.822419	 0.500000 
S96	 0.206976	 0.876082	 1.000000 
S97	 0.206976	 0.876082	 0.000000 
S98	 0.490700	 0.003102	 1.000000 
S99	 0.490700	 0.003102	 0.000000 
Mo100	 0.461943	 0.110427	 0.500000 
Mo101	 0.529984	 0.042386	 0.500000 
S102	 0.515605	 0.096048	 1.000000 
S103	 0.515605	 0.096048	 0.000000 
S104	 0.447564	 0.164090	 1.000000 
S105	 0.447564	 0.164090	 0.000000 
Mo106	 0.418806	 0.271415	 0.500000 
Mo107	 0.486848	 0.203373	 0.500000 
S108	 0.472469	 0.257036	 1.000000 
S109	 0.472469	 0.257036	 0.000000 
S110	 0.404427	 0.325077	 1.000000 
S111	 0.404427	 0.325077	 0.000000 
Mo112	 0.375670	 0.432402	 0.500000 
Mo113	 0.443711	 0.364361	 0.500000 
S114	 0.429332	 0.418024	 1.000000 
S115	 0.429332	 0.418024	 0.000000 
S116	 0.361291	 0.486065	 1.000000 
S117	 0.361291	 0.486065	 0.000000 
Mo118	 0.332533	 0.593390	 0.500000 
Mo119	 0.400574	 0.525349	 0.500000 
S120	 0.386196	 0.579011	 1.000000 
S121	 0.386196	 0.579011	 0.000000 
S122	 0.318154	 0.647053	 1.000000 
S123	 0.318154	 0.647053	 0.000000 
Mo124	 0.289397	 0.754378	 0.500000 
Mo125	 0.357438	 0.686336	 0.500000 
S126	 0.343059	 0.739999	 1.000000 
S127	 0.343059	 0.739999	 0.000000 
S128	 0.275018	 0.808040	 1.000000 
S129	 0.275018	 0.808040	 0.000000 
Mo130	 0.246260	 0.915365	 0.500000 
Mo131	 0.314301	 0.847324	 0.500000 
S132	 0.299923	 0.900986	 1.000000 
S133	 0.299923	 0.900986	 0.000000 
S134	 0.583647	 0.028007	 1.000000 
S135	 0.583647	 0.028007	 0.000000 
Mo136	 0.554889	 0.135332	 0.500000 
Mo137	 0.622930	 0.067291	 0.500000 
S138	 0.608551	 0.120953	 1.000000 
S139	 0.608551	 0.120953	 0.000000 
S140	 0.540510	 0.188995	 1.000000 
S141	 0.540510	 0.188995	 0.000000 
Mo142	 0.511752	 0.296320	 0.500000 
Mo143	 0.579794	 0.228278	 0.500000 
S144	 0.565415	 0.281941	 1.000000 
S145	 0.565415	 0.281941	 0.000000 
S146	 0.497374	 0.349982	 1.000000 
S147	 0.497374	 0.349982	 0.000000 
Mo148	 0.468616	 0.457307	 0.500000 
Mo149	 0.536657	 0.389266	 0.500000 
S150	 0.522278	 0.442928	 1.000000 
S151	 0.522278	 0.442928	 0.000000 
S152	 0.454237	 0.510970	 1.000000 
S153	 0.454237	 0.510970	 0.000000 
Mo154	 0.425479	 0.618295	 0.500000 
Mo155	 0.493521	 0.550254	 0.500000 
S156	 0.479142	 0.603916	 1.000000 
S157	 0.479142	 0.603916	 0.000000 
S158	 0.411101	 0.671957	 1.000000 
S159	 0.411101	 0.671957	 0.000000 
Mo160	 0.382343	 0.779283	 0.500000 
Mo161	 0.450384	 0.711241	 0.500000 
S162	 0.436005	 0.764904	 1.000000 
S163	 0.436005	 0.764904	 0.000000 
S164	 0.367964	 0.832945	 1.000000 
S165	 0.367964	 0.832945	 0.000000 
Mo166	 0.339206	 0.940270	 0.500000 
Mo167	 0.407248	 0.872229	 0.500000 
S168	 0.392869	 0.925891	 1.000000 
S169	 0.392869	 0.925891	 0.000000 
S170	 0.676593	 0.052912	 1.000000 
S171	 0.676593	 0.052912	 0.000000 
Mo172	 0.647835	 0.160237	 0.500000 
Mo173	 0.715877	 0.092195	 0.500000 
S174	 0.701498	 0.145858	 1.000000 
S175	 0.701498	 0.145858	 0.000000 
S176	 0.633456	 0.213899	 1.000000 
S177	 0.633456	 0.213899	 0.000000 
Mo178	 0.604699	 0.321225	 0.500000 
Mo179	 0.672740	 0.253183	 0.500000 
S180	 0.658361	 0.306846	 1.000000 
S181	 0.658361	 0.306846	 0.000000 
S182	 0.590320	 0.374887	 1.000000 
S183	 0.590320	 0.374887	 0.000000 
Mo184	 0.561562	 0.482212	 0.500000 
Mo185	 0.629604	 0.414171	 0.500000 
S186	 0.615225	 0.467833	 1.000000 
S187	 0.615225	 0.467833	 0.000000 
S188	 0.547183	 0.535875	 1.000000 
S189	 0.547183	 0.535875	 0.000000 
Mo190	 0.518426	 0.643200	 0.500000 
Mo191	 0.586467	 0.575158	 0.500000 
S192	 0.572088	 0.628821	 1.000000 
S193	 0.572088	 0.628821	 0.000000 
S194	 0.504047	 0.696862	 1.000000 
S195	 0.504047	 0.696862	 0.000000 
Mo196	 0.475289	 0.804187	 0.500000 
Mo197	 0.543331	 0.736146	 0.500000 
S198	 0.528952	 0.789809	 1.000000 
S199	 0.528952	 0.789809	 0.000000 
S200	 0.460910	 0.857850	 1.000000 
S201	 0.460910	 0.857850	 0.000000 
Mo202	 0.432153	 0.965175	 0.500000 
Mo203	 0.500194	 0.897134	 0.500000 
S204	 0.485815	 0.950796	 1.000000 
S205	 0.485815	 0.950796	 0.000000 
S206	 0.769539	 0.077817	 1.000000 
S207	 0.769539	 0.077817	 0.000000 
Mo208	 0.740781	 0.185142	 0.500000 
Mo209	 0.808823	 0.117100	 0.500000 
S210	 0.794444	 0.170763	 1.000000 
S211	 0.794444	 0.170763	 0.000000 
S212	 0.726403	 0.238804	 1.000000 
S213	 0.726403	 0.238804	 0.000000 
Mo214	 0.697645	 0.346129	 0.500000 
Mo215	 0.765686	 0.278088	 0.500000 
S216	 0.751307	 0.331751	 1.000000 
S217	 0.751307	 0.331751	 0.000000 
S218	 0.683266	 0.399792	 1.000000 
S219	 0.683266	 0.399792	 0.000000 
Mo220	 0.654508	 0.507117	 0.500000 
Mo221	 0.722550	 0.439076	 0.500000 
S222	 0.708171	 0.492738	 1.000000 
S223	 0.708171	 0.492738	 0.000000 
S224	 0.640130	 0.560780	 1.000000 
S225	 0.640130	 0.560780	 0.000000 
Mo226	 0.611372	 0.668105	 0.500000 
Mo227	 0.679413	 0.600063	 0.500000 
S228	 0.665034	 0.653726	 1.000000 
S229	 0.665034	 0.653726	 0.000000 
S230	 0.596993	 0.721767	 1.000000 
S231	 0.596993	 0.721767	 0.000000 
Mo232	 0.568235	 0.829092	 0.500000 
Mo233	 0.636277	 0.761051	 0.500000 
S234	 0.621898	 0.814713	 1.000000 
S235	 0.621898	 0.814713	 0.000000 
S236	 0.553857	 0.882755	 1.000000 
S237	 0.553857	 0.882755	 0.000000 
Mo238	 0.525099	 0.990080	 0.500000 
Mo239	 0.593140	 0.922039	 0.500000 
S240	 0.578761	 0.975701	 1.000000 
S241	 0.578761	 0.975701	 0.000000 
S242	 0.862485	 0.102722	 1.000000 
S243	 0.862485	 0.102722	 0.000000 
Mo244	 0.833728	 0.210047	 0.500000 
Mo245	 0.901769	 0.142005	 0.500000 
S246	 0.887390	 0.195668	 1.000000 
S247	 0.887390	 0.195668	 0.000000 
S248	 0.819349	 0.263709	 1.000000 
S249	 0.819349	 0.263709	 0.000000 
Mo250	 0.790591	 0.371034	 0.500000 
Mo251	 0.858633	 0.302993	 0.500000 
S252	 0.844254	 0.356655	 1.000000 
S253	 0.844254	 0.356655	 0.000000 
S254	 0.776212	 0.424697	 1.000000 
S255	 0.776212	 0.424697	 0.000000 
Mo256	 0.747455	 0.532022	 0.500000 
Mo257	 0.815496	 0.463981	 0.500000 
S258	 0.801117	 0.517643	 1.000000 
S259	 0.801117	 0.517643	 0.000000 
S260	 0.733076	 0.585684	 1.000000 
S261	 0.733076	 0.585684	 0.000000 
Mo262	 0.704318	 0.693010	 0.500000 
Mo263	 0.772360	 0.624968	 0.500000 
S264	 0.757981	 0.678631	 1.000000 
S265	 0.757981	 0.678631	 0.000000 
S266	 0.689939	 0.746672	 1.000000 
S267	 0.689939	 0.746672	 0.000000 
Mo268	 0.661182	 0.853997	 0.500000 
Mo269	 0.729223	 0.785956	 0.500000 
S270	 0.714844	 0.839618	 1.000000 
S271	 0.714844	 0.839618	 0.000000 
S272	 0.646803	 0.907660	 1.000000 
S273	 0.646803	 0.907660	 0.000000 
Mo274	 0.686087	 0.946943	 0.500000 
S275	 0.955432	 0.127626	 1.000000 
S276	 0.955432	 0.127626	 0.000000 
Mo277	 0.926674	 0.234951	 0.500000 
Mo278	 0.994715	 0.166910	 0.500000 
S279	 0.980336	 0.220573	 1.000000 
S280	 0.980336	 0.220573	 0.000000 
S281	 0.912295	 0.288614	 1.000000 
S282	 0.912295	 0.288614	 0.000000 
Mo283	 0.883537	 0.395939	 0.500000 
Mo284	 0.951579	 0.327898	 0.500000 
S285	 0.937200	 0.381560	 1.000000 
S286	 0.937200	 0.381560	 0.000000 
S287	 0.869159	 0.449602	 1.000000 
S288	 0.869159	 0.449602	 0.000000 
Mo289	 0.840401	 0.556927	 0.500000 
Mo290	 0.908442	 0.488885	 0.500000 
S291	 0.894063	 0.542548	 1.000000 
S292	 0.894063	 0.542548	 0.000000 
S293	 0.826022	 0.610589	 1.000000 
S294	 0.826022	 0.610589	 0.000000 
Mo295	 0.797264	 0.717914	 0.500000 
Mo296	 0.865306	 0.649873	 0.500000 
S297	 0.850927	 0.703536	 1.000000 
S298	 0.850927	 0.703536	 0.000000 
S299	 0.782886	 0.771577	 1.000000 
S300	 0.782886	 0.771577	 0.000000 
Mo301	 0.754128	 0.878902	 0.500000 
Mo302	 0.822169	 0.810861	 0.500000 
S303	 0.807790	 0.864523	 1.000000 
S304	 0.807790	 0.864523	 0.000000 
S305	 0.739749	 0.932565	 1.000000 
S306	 0.739749	 0.932565	 0.000000 
Mo307	 0.779033	 0.971848	 0.500000 
Mo308	 0.976484	 0.420844	 0.500000 
Mo309	 0.115062	 0.103754	 0.500000 
S310	 0.100684	 0.157416	 1.000000 
S311	 0.100684	 0.157416	 0.000000 
S312	 0.962105	 0.474507	 1.000000 
S313	 0.962105	 0.474507	 0.000000 
Mo314	 0.933347	 0.581832	 0.500000 
Mo315	 0.071926	 0.264742	 0.500000 
S316	 0.057547	 0.318404	 1.000000 
S317	 0.057547	 0.318404	 0.000000 
S318	 0.918968	 0.635494	 1.000000 
S319	 0.918968	 0.635494	 0.000000 
Mo320	 0.890211	 0.742819	 0.500000 
Mo321	 0.028789	 0.425729	 0.500000 
S322	 0.014411	 0.479392	 1.000000 
S323	 0.014411	 0.479392	 0.000000 
S324	 0.875832	 0.796482	 1.000000 
S325	 0.875832	 0.796482	 0.000000 
Mo326	 0.847074	 0.903807	 0.500000 
S327	 0.832695	 0.957469	 1.000000 
S328	 0.832695	 0.957469	 0.000000 
#                 ---end-of-data-block---
