data_Single Layer of MoS2nx 10 ny 6 nz 1
_cell_length_a               32.423991
_cell_length_b               32.423991
_cell_length_c               3.080000
_cell_angle_alpha          90.000000
_cell_angle_beta           90.000000
_cell_angle_gamma          90.000000
_symmetry_cell_setting          Triclinic
_symmetry_space_group_name_H-M 'P 1' 
loop_
_atom_site_label
_atom_site_fract_x
_atom_site_fract_y
_atom_site_fract_z
S1	 0.227256	 0.007516	 1.000000 
S2	 0.227256	 0.007516	 0.000000 
Mo3	 0.198499	 0.114841	 0.500000 
Mo4	 0.266540	 0.046800	 0.500000 
S5	 0.252161	 0.100462	 1.000000 
S6	 0.252161	 0.100462	 0.000000 
S7	 0.184120	 0.168504	 1.000000 
S8	 0.184120	 0.168504	 0.000000 
Mo9	 0.155362	 0.275829	 0.500000 
Mo10	 0.223403	 0.207787	 0.500000 
S11	 0.209025	 0.261450	 1.000000 
S12	 0.209025	 0.261450	 0.000000 
S13	 0.140983	 0.329491	 1.000000 
S14	 0.140983	 0.329491	 0.000000 
Mo15	 0.112226	 0.436816	 0.500000 
Mo16	 0.180267	 0.368775	 0.500000 
S17	 0.165888	 0.422438	 1.000000 
S18	 0.165888	 0.422438	 0.000000 
S19	 0.097847	 0.490479	 1.000000 
S20	 0.097847	 0.490479	 0.000000 
Mo21	 0.069089	 0.597804	 0.500000 
Mo22	 0.137130	 0.529763	 0.500000 
S23	 0.122752	 0.583425	 1.000000 
S24	 0.122752	 0.583425	 0.000000 
S25	 0.054710	 0.651467	 1.000000 
S26	 0.054710	 0.651467	 0.000000 
Mo27	 0.025952	 0.758792	 0.500000 
Mo28	 0.093994	 0.690750	 0.500000 
S29	 0.079615	 0.744413	 1.000000 
S30	 0.079615	 0.744413	 0.000000 
S31	 0.011574	 0.812454	 1.000000 
S32	 0.011574	 0.812454	 0.000000 
Mo33	 0.050857	 0.851738	 0.500000 
S34	 0.320202	 0.032421	 1.000000 
S35	 0.320202	 0.032421	 0.000000 
Mo36	 0.291445	 0.139746	 0.500000 
Mo37	 0.359486	 0.071705	 0.500000 
S38	 0.345107	 0.125367	 1.000000 
S39	 0.345107	 0.125367	 0.000000 
S40	 0.277066	 0.193409	 1.000000 
S41	 0.277066	 0.193409	 0.000000 
Mo42	 0.248308	 0.300734	 0.500000 
Mo43	 0.316350	 0.232692	 0.500000 
S44	 0.301971	 0.286355	 1.000000 
S45	 0.301971	 0.286355	 0.000000 
S46	 0.233929	 0.354396	 1.000000 
S47	 0.233929	 0.354396	 0.000000 
Mo48	 0.205172	 0.461721	 0.500000 
Mo49	 0.273213	 0.393680	 0.500000 
S50	 0.258834	 0.447342	 1.000000 
S51	 0.258834	 0.447342	 0.000000 
S52	 0.190793	 0.515384	 1.000000 
S53	 0.190793	 0.515384	 0.000000 
Mo54	 0.162035	 0.622709	 0.500000 
Mo55	 0.230077	 0.554668	 0.500000 
S56	 0.215698	 0.608330	 1.000000 
S57	 0.215698	 0.608330	 0.000000 
S58	 0.147656	 0.676372	 1.000000 
S59	 0.147656	 0.676372	 0.000000 
Mo60	 0.118899	 0.783697	 0.500000 
Mo61	 0.186940	 0.715655	 0.500000 
S62	 0.172561	 0.769318	 1.000000 
S63	 0.172561	 0.769318	 0.000000 
S64	 0.104520	 0.837359	 1.000000 
S65	 0.104520	 0.837359	 0.000000 
Mo66	 0.143804	 0.876643	 0.500000 
S67	 0.413149	 0.057326	 1.000000 
S68	 0.413149	 0.057326	 0.000000 
Mo69	 0.384391	 0.164651	 0.500000 
Mo70	 0.452432	 0.096610	 0.500000 
S71	 0.438054	 0.150272	 1.000000 
S72	 0.438054	 0.150272	 0.000000 
S73	 0.370012	 0.218313	 1.000000 
S74	 0.370012	 0.218313	 0.000000 
Mo75	 0.341255	 0.325639	 0.500000 
Mo76	 0.409296	 0.257597	 0.500000 
S77	 0.394917	 0.311260	 1.000000 
S78	 0.394917	 0.311260	 0.000000 
S79	 0.326876	 0.379301	 1.000000 
S80	 0.326876	 0.379301	 0.000000 
Mo81	 0.298118	 0.486626	 0.500000 
Mo82	 0.366159	 0.418585	 0.500000 
S83	 0.351781	 0.472247	 1.000000 
S84	 0.351781	 0.472247	 0.000000 
S85	 0.283739	 0.540289	 1.000000 
S86	 0.283739	 0.540289	 0.000000 
Mo87	 0.254982	 0.647614	 0.500000 
Mo88	 0.323023	 0.579572	 0.500000 
S89	 0.308644	 0.633235	 1.000000 
S90	 0.308644	 0.633235	 0.000000 
S91	 0.240603	 0.701276	 1.000000 
S92	 0.240603	 0.701276	 0.000000 
Mo93	 0.211845	 0.808601	 0.500000 
Mo94	 0.279886	 0.740560	 0.500000 
S95	 0.265508	 0.794223	 1.000000 
S96	 0.265508	 0.794223	 0.000000 
S97	 0.197466	 0.862264	 1.000000 
S98	 0.197466	 0.862264	 0.000000 
Mo99	 0.427528	 0.003663	 0.500000 
Mo100	 0.236750	 0.901548	 0.500000 
S101	 0.506095	 0.082231	 1.000000 
S102	 0.506095	 0.082231	 0.000000 
Mo103	 0.477337	 0.189556	 0.500000 
Mo104	 0.545379	 0.121514	 0.500000 
S105	 0.531000	 0.175177	 1.000000 
S106	 0.531000	 0.175177	 0.000000 
S107	 0.462958	 0.243218	 1.000000 
S108	 0.462958	 0.243218	 0.000000 
Mo109	 0.434201	 0.350543	 0.500000 
Mo110	 0.502242	 0.282502	 0.500000 
S111	 0.487863	 0.336165	 1.000000 
S112	 0.487863	 0.336165	 0.000000 
S113	 0.419822	 0.404206	 1.000000 
S114	 0.419822	 0.404206	 0.000000 
Mo115	 0.391064	 0.511531	 0.500000 
Mo116	 0.459106	 0.443490	 0.500000 
S117	 0.444727	 0.497152	 1.000000 
S118	 0.444727	 0.497152	 0.000000 
S119	 0.376685	 0.565194	 1.000000 
S120	 0.376685	 0.565194	 0.000000 
Mo121	 0.347928	 0.672519	 0.500000 
Mo122	 0.415969	 0.604477	 0.500000 
S123	 0.401590	 0.658140	 1.000000 
S124	 0.401590	 0.658140	 0.000000 
S125	 0.333549	 0.726181	 1.000000 
S126	 0.333549	 0.726181	 0.000000 
Mo127	 0.304791	 0.833506	 0.500000 
Mo128	 0.372833	 0.765465	 0.500000 
S129	 0.358454	 0.819128	 1.000000 
S130	 0.358454	 0.819128	 0.000000 
S131	 0.290412	 0.887169	 1.000000 
S132	 0.290412	 0.887169	 0.000000 
Mo133	 0.520474	 0.028568	 0.500000 
Mo134	 0.329696	 0.926453	 0.500000 
S135	 0.574136	 0.014189	 1.000000 
S136	 0.574136	 0.014189	 0.000000 
S137	 0.599041	 0.107136	 1.000000 
S138	 0.599041	 0.107136	 0.000000 
Mo139	 0.570284	 0.214461	 0.500000 
Mo140	 0.638325	 0.146419	 0.500000 
S141	 0.623946	 0.200082	 1.000000 
S142	 0.623946	 0.200082	 0.000000 
S143	 0.555905	 0.268123	 1.000000 
S144	 0.555905	 0.268123	 0.000000 
Mo145	 0.527147	 0.375448	 0.500000 
Mo146	 0.595188	 0.307407	 0.500000 
S147	 0.580810	 0.361069	 1.000000 
S148	 0.580810	 0.361069	 0.000000 
S149	 0.512768	 0.429111	 1.000000 
S150	 0.512768	 0.429111	 0.000000 
Mo151	 0.484011	 0.536436	 0.500000 
Mo152	 0.552052	 0.468395	 0.500000 
S153	 0.537673	 0.522057	 1.000000 
S154	 0.537673	 0.522057	 0.000000 
S155	 0.469632	 0.590098	 1.000000 
S156	 0.469632	 0.590098	 0.000000 
Mo157	 0.440874	 0.697424	 0.500000 
Mo158	 0.508915	 0.629382	 0.500000 
S159	 0.494537	 0.683045	 1.000000 
S160	 0.494537	 0.683045	 0.000000 
S161	 0.426495	 0.751086	 1.000000 
S162	 0.426495	 0.751086	 0.000000 
Mo163	 0.397738	 0.858411	 0.500000 
Mo164	 0.465779	 0.790370	 0.500000 
S165	 0.451400	 0.844032	 1.000000 
S166	 0.451400	 0.844032	 0.000000 
S167	 0.383359	 0.912074	 1.000000 
S168	 0.383359	 0.912074	 0.000000 
Mo169	 0.613420	 0.053473	 0.500000 
Mo170	 0.422642	 0.951357	 0.500000 
S171	 0.667083	 0.039094	 1.000000 
S172	 0.667083	 0.039094	 0.000000 
S173	 0.691987	 0.132040	 1.000000 
S174	 0.691987	 0.132040	 0.000000 
Mo175	 0.663230	 0.239366	 0.500000 
Mo176	 0.731271	 0.171324	 0.500000 
S177	 0.716892	 0.224987	 1.000000 
S178	 0.716892	 0.224987	 0.000000 
S179	 0.648851	 0.293028	 1.000000 
S180	 0.648851	 0.293028	 0.000000 
Mo181	 0.620093	 0.400353	 0.500000 
Mo182	 0.688135	 0.332312	 0.500000 
S183	 0.673756	 0.385974	 1.000000 
S184	 0.673756	 0.385974	 0.000000 
S185	 0.605714	 0.454016	 1.000000 
S186	 0.605714	 0.454016	 0.000000 
Mo187	 0.576957	 0.561341	 0.500000 
Mo188	 0.644998	 0.493299	 0.500000 
S189	 0.630619	 0.546962	 1.000000 
S190	 0.630619	 0.546962	 0.000000 
S191	 0.562578	 0.615003	 1.000000 
S192	 0.562578	 0.615003	 0.000000 
Mo193	 0.533820	 0.722328	 0.500000 
Mo194	 0.601862	 0.654287	 0.500000 
S195	 0.587483	 0.707950	 1.000000 
S196	 0.587483	 0.707950	 0.000000 
S197	 0.519441	 0.775991	 1.000000 
S198	 0.519441	 0.775991	 0.000000 
Mo199	 0.490684	 0.883316	 0.500000 
Mo200	 0.558725	 0.815275	 0.500000 
S201	 0.544346	 0.868937	 1.000000 
S202	 0.544346	 0.868937	 0.000000 
S203	 0.476305	 0.936979	 1.000000 
S204	 0.476305	 0.936979	 0.000000 
Mo205	 0.706366	 0.078378	 0.500000 
Mo206	 0.515589	 0.976262	 0.500000 
S207	 0.760029	 0.063999	 1.000000 
S208	 0.760029	 0.063999	 0.000000 
S209	 0.784934	 0.156945	 1.000000 
S210	 0.784934	 0.156945	 0.000000 
Mo211	 0.756176	 0.264270	 0.500000 
Mo212	 0.824217	 0.196229	 0.500000 
S213	 0.809839	 0.249892	 1.000000 
S214	 0.809839	 0.249892	 0.000000 
S215	 0.741797	 0.317933	 1.000000 
S216	 0.741797	 0.317933	 0.000000 
Mo217	 0.713040	 0.425258	 0.500000 
Mo218	 0.781081	 0.357217	 0.500000 
S219	 0.766702	 0.410879	 1.000000 
S220	 0.766702	 0.410879	 0.000000 
S221	 0.698661	 0.478921	 1.000000 
S222	 0.698661	 0.478921	 0.000000 
Mo223	 0.669903	 0.586246	 0.500000 
Mo224	 0.737944	 0.518204	 0.500000 
S225	 0.723566	 0.571867	 1.000000 
S226	 0.723566	 0.571867	 0.000000 
S227	 0.655524	 0.639908	 1.000000 
S228	 0.655524	 0.639908	 0.000000 
Mo229	 0.626767	 0.747233	 0.500000 
Mo230	 0.694808	 0.679192	 0.500000 
S231	 0.680429	 0.732854	 1.000000 
S232	 0.680429	 0.732854	 0.000000 
S233	 0.612388	 0.800896	 1.000000 
S234	 0.612388	 0.800896	 0.000000 
Mo235	 0.583630	 0.908221	 0.500000 
Mo236	 0.651671	 0.840180	 0.500000 
S237	 0.637293	 0.893842	 1.000000 
S238	 0.637293	 0.893842	 0.000000 
S239	 0.569251	 0.961884	 1.000000 
S240	 0.569251	 0.961884	 0.000000 
Mo241	 0.799313	 0.103283	 0.500000 
S242	 0.852975	 0.088904	 1.000000 
S243	 0.852975	 0.088904	 0.000000 
S244	 0.877880	 0.181850	 1.000000 
S245	 0.877880	 0.181850	 0.000000 
Mo246	 0.849122	 0.289175	 0.500000 
Mo247	 0.917164	 0.221134	 0.500000 
S248	 0.902785	 0.274796	 1.000000 
S249	 0.902785	 0.274796	 0.000000 
S250	 0.834743	 0.342838	 1.000000 
S251	 0.834743	 0.342838	 0.000000 
Mo252	 0.805986	 0.450163	 0.500000 
Mo253	 0.874027	 0.382122	 0.500000 
S254	 0.859648	 0.435784	 1.000000 
S255	 0.859648	 0.435784	 0.000000 
S256	 0.791607	 0.503825	 1.000000 
S257	 0.791607	 0.503825	 0.000000 
Mo258	 0.762849	 0.611151	 0.500000 
Mo259	 0.830891	 0.543109	 0.500000 
S260	 0.816512	 0.596772	 1.000000 
S261	 0.816512	 0.596772	 0.000000 
S262	 0.748470	 0.664813	 1.000000 
S263	 0.748470	 0.664813	 0.000000 
Mo264	 0.719713	 0.772138	 0.500000 
Mo265	 0.787754	 0.704097	 0.500000 
S266	 0.773375	 0.757759	 1.000000 
S267	 0.773375	 0.757759	 0.000000 
S268	 0.705334	 0.825801	 1.000000 
S269	 0.705334	 0.825801	 0.000000 
Mo270	 0.676576	 0.933126	 0.500000 
Mo271	 0.744618	 0.865084	 0.500000 
S272	 0.730239	 0.918747	 1.000000 
S273	 0.730239	 0.918747	 0.000000 
S274	 0.662197	 0.986788	 1.000000 
S275	 0.662197	 0.986788	 0.000000 
Mo276	 0.892259	 0.128188	 0.500000 
S277	 0.945921	 0.113809	 1.000000 
S278	 0.945921	 0.113809	 0.000000 
S279	 0.970826	 0.206755	 1.000000 
S280	 0.970826	 0.206755	 0.000000 
Mo281	 0.942069	 0.314080	 0.500000 
S282	 0.995731	 0.299701	 1.000000 
S283	 0.995731	 0.299701	 0.000000 
S284	 0.927690	 0.367743	 1.000000 
S285	 0.927690	 0.367743	 0.000000 
Mo286	 0.898932	 0.475068	 0.500000 
Mo287	 0.966973	 0.407026	 0.500000 
S288	 0.952595	 0.460689	 1.000000 
S289	 0.952595	 0.460689	 0.000000 
S290	 0.884553	 0.528730	 1.000000 
S291	 0.884553	 0.528730	 0.000000 
Mo292	 0.855796	 0.636055	 0.500000 
Mo293	 0.923837	 0.568014	 0.500000 
S294	 0.909458	 0.621677	 1.000000 
S295	 0.909458	 0.621677	 0.000000 
S296	 0.841417	 0.689718	 1.000000 
S297	 0.841417	 0.689718	 0.000000 
Mo298	 0.812659	 0.797043	 0.500000 
Mo299	 0.880700	 0.729002	 0.500000 
S300	 0.866322	 0.782664	 1.000000 
S301	 0.866322	 0.782664	 0.000000 
S302	 0.798280	 0.850706	 1.000000 
S303	 0.798280	 0.850706	 0.000000 
Mo304	 0.769523	 0.958031	 0.500000 
Mo305	 0.837564	 0.889989	 0.500000 
S306	 0.823185	 0.943652	 1.000000 
S307	 0.823185	 0.943652	 0.000000 
Mo308	 0.985205	 0.153093	 0.500000 
Mo309	 0.173594	 0.021895	 0.500000 
S310	 0.159215	 0.075557	 1.000000 
S311	 0.159215	 0.075557	 0.000000 
Mo312	 0.991878	 0.499973	 0.500000 
Mo313	 0.130457	 0.182883	 0.500000 
S314	 0.116078	 0.236545	 1.000000 
S315	 0.116078	 0.236545	 0.000000 
S316	 0.977499	 0.553635	 1.000000 
S317	 0.977499	 0.553635	 0.000000 
Mo318	 0.948742	 0.660960	 0.500000 
Mo319	 0.087321	 0.343870	 0.500000 
S320	 0.072942	 0.397533	 1.000000 
S321	 0.072942	 0.397533	 0.000000 
S322	 0.934363	 0.714623	 1.000000 
S323	 0.934363	 0.714623	 0.000000 
Mo324	 0.905605	 0.821948	 0.500000 
Mo325	 0.044184	 0.504858	 0.500000 
S326	 0.029805	 0.558520	 1.000000 
S327	 0.029805	 0.558520	 0.000000 
S328	 0.891226	 0.875611	 1.000000 
S329	 0.891226	 0.875611	 0.000000 
Mo330	 0.862469	 0.982936	 0.500000 
Mo331	 0.001048	 0.665845	 0.500000 
#                 ---end-of-data-block---
