data_Single Layer of MoS2nx 10 ny 6 nz 1
_cell_length_a               32.423991
_cell_length_b               32.423991
_cell_length_c               3.080000
_cell_angle_alpha          90.000000
_cell_angle_beta           90.000000
_cell_angle_gamma          90.000000
_symmetry_cell_setting          Triclinic
_symmetry_space_group_name_H-M 'P 1' 
loop_
_atom_site_label
_atom_site_fract_x
_atom_site_fract_y
_atom_site_fract_z
Mo1	 0.171168	 0.033627	 0.500000 
S2	 0.224831	 0.019249	 1.000000 
S3	 0.224831	 0.019249	 0.000000 
S4	 0.156789	 0.087290	 1.000000 
S5	 0.156789	 0.087290	 0.000000 
Mo6	 0.128032	 0.194615	 0.500000 
Mo7	 0.196073	 0.126574	 0.500000 
S8	 0.181694	 0.180236	 1.000000 
S9	 0.181694	 0.180236	 0.000000 
S10	 0.113653	 0.248278	 1.000000 
S11	 0.113653	 0.248278	 0.000000 
Mo12	 0.084895	 0.355603	 0.500000 
Mo13	 0.152937	 0.287561	 0.500000 
S14	 0.138558	 0.341224	 1.000000 
S15	 0.138558	 0.341224	 0.000000 
S16	 0.070516	 0.409265	 1.000000 
S17	 0.070516	 0.409265	 0.000000 
Mo18	 0.041759	 0.516590	 0.500000 
Mo19	 0.109800	 0.448549	 0.500000 
S20	 0.095421	 0.502211	 1.000000 
S21	 0.095421	 0.502211	 0.000000 
S22	 0.027380	 0.570253	 1.000000 
S23	 0.027380	 0.570253	 0.000000 
Mo24	 0.066664	 0.609537	 0.500000 
S25	 0.052285	 0.663199	 1.000000 
S26	 0.052285	 0.663199	 0.000000 
Mo27	 0.023527	 0.770524	 0.500000 
S28	 0.009148	 0.824187	 1.000000 
S29	 0.009148	 0.824187	 0.000000 
Mo30	 0.264114	 0.058532	 0.500000 
S31	 0.317777	 0.044153	 1.000000 
S32	 0.317777	 0.044153	 0.000000 
S33	 0.249736	 0.112195	 1.000000 
S34	 0.249736	 0.112195	 0.000000 
Mo35	 0.220978	 0.219520	 0.500000 
Mo36	 0.289019	 0.151479	 0.500000 
S37	 0.274640	 0.205141	 1.000000 
S38	 0.274640	 0.205141	 0.000000 
S39	 0.206599	 0.273182	 1.000000 
S40	 0.206599	 0.273182	 0.000000 
Mo41	 0.177841	 0.380508	 0.500000 
Mo42	 0.245883	 0.312466	 0.500000 
S43	 0.231504	 0.366129	 1.000000 
S44	 0.231504	 0.366129	 0.000000 
S45	 0.163463	 0.434170	 1.000000 
S46	 0.163463	 0.434170	 0.000000 
Mo47	 0.134705	 0.541495	 0.500000 
Mo48	 0.202746	 0.473454	 0.500000 
S49	 0.188367	 0.527116	 1.000000 
S50	 0.188367	 0.527116	 0.000000 
S51	 0.120326	 0.595158	 1.000000 
S52	 0.120326	 0.595158	 0.000000 
Mo53	 0.091568	 0.702483	 0.500000 
Mo54	 0.159610	 0.634441	 0.500000 
S55	 0.145231	 0.688104	 1.000000 
S56	 0.145231	 0.688104	 0.000000 
S57	 0.077190	 0.756145	 1.000000 
S58	 0.077190	 0.756145	 0.000000 
Mo59	 0.048432	 0.863470	 0.500000 
Mo60	 0.116473	 0.795429	 0.500000 
S61	 0.102094	 0.849092	 1.000000 
S62	 0.102094	 0.849092	 0.000000 
Mo63	 0.357061	 0.083437	 0.500000 
Mo64	 0.425102	 0.015396	 0.500000 
S65	 0.410723	 0.069058	 1.000000 
S66	 0.410723	 0.069058	 0.000000 
S67	 0.342682	 0.137100	 1.000000 
S68	 0.342682	 0.137100	 0.000000 
Mo69	 0.313924	 0.244425	 0.500000 
Mo70	 0.381966	 0.176383	 0.500000 
S71	 0.367587	 0.230046	 1.000000 
S72	 0.367587	 0.230046	 0.000000 
S73	 0.299545	 0.298087	 1.000000 
S74	 0.299545	 0.298087	 0.000000 
Mo75	 0.270788	 0.405412	 0.500000 
Mo76	 0.338829	 0.337371	 0.500000 
S77	 0.324450	 0.391034	 1.000000 
S78	 0.324450	 0.391034	 0.000000 
S79	 0.256409	 0.459075	 1.000000 
S80	 0.256409	 0.459075	 0.000000 
Mo81	 0.227651	 0.566400	 0.500000 
Mo82	 0.295693	 0.498359	 0.500000 
S83	 0.281314	 0.552021	 1.000000 
S84	 0.281314	 0.552021	 0.000000 
S85	 0.213272	 0.620063	 1.000000 
S86	 0.213272	 0.620063	 0.000000 
Mo87	 0.184515	 0.727388	 0.500000 
Mo88	 0.252556	 0.659346	 0.500000 
S89	 0.238177	 0.713009	 1.000000 
S90	 0.238177	 0.713009	 0.000000 
S91	 0.170136	 0.781050	 1.000000 
S92	 0.170136	 0.781050	 0.000000 
Mo93	 0.141378	 0.888375	 0.500000 
Mo94	 0.209420	 0.820334	 0.500000 
S95	 0.195041	 0.873997	 1.000000 
S96	 0.195041	 0.873997	 0.000000 
S97	 0.478765	 0.001017	 1.000000 
S98	 0.478765	 0.001017	 0.000000 
Mo99	 0.450007	 0.108342	 0.500000 
Mo100	 0.518048	 0.040301	 0.500000 
S101	 0.503669	 0.093963	 1.000000 
S102	 0.503669	 0.093963	 0.000000 
S103	 0.435628	 0.162005	 1.000000 
S104	 0.435628	 0.162005	 0.000000 
Mo105	 0.406870	 0.269330	 0.500000 
Mo106	 0.474912	 0.201288	 0.500000 
S107	 0.460533	 0.254951	 1.000000 
S108	 0.460533	 0.254951	 0.000000 
S109	 0.392492	 0.322992	 1.000000 
S110	 0.392492	 0.322992	 0.000000 
Mo111	 0.363734	 0.430317	 0.500000 
Mo112	 0.431775	 0.362276	 0.500000 
S113	 0.417396	 0.415938	 1.000000 
S114	 0.417396	 0.415938	 0.000000 
S115	 0.349355	 0.483980	 1.000000 
S116	 0.349355	 0.483980	 0.000000 
Mo117	 0.320597	 0.591305	 0.500000 
Mo118	 0.388639	 0.523264	 0.500000 
S119	 0.374260	 0.576926	 1.000000 
S120	 0.374260	 0.576926	 0.000000 
S121	 0.306219	 0.644967	 1.000000 
S122	 0.306219	 0.644967	 0.000000 
Mo123	 0.277461	 0.752293	 0.500000 
Mo124	 0.345502	 0.684251	 0.500000 
S125	 0.331123	 0.737914	 1.000000 
S126	 0.331123	 0.737914	 0.000000 
S127	 0.263082	 0.805955	 1.000000 
S128	 0.263082	 0.805955	 0.000000 
Mo129	 0.234324	 0.913280	 0.500000 
Mo130	 0.302366	 0.845239	 0.500000 
S131	 0.287987	 0.898901	 1.000000 
S132	 0.287987	 0.898901	 0.000000 
S133	 0.571711	 0.025922	 1.000000 
S134	 0.571711	 0.025922	 0.000000 
Mo135	 0.542953	 0.133247	 0.500000 
Mo136	 0.610995	 0.065206	 0.500000 
S137	 0.596616	 0.118868	 1.000000 
S138	 0.596616	 0.118868	 0.000000 
S139	 0.528574	 0.186909	 1.000000 
S140	 0.528574	 0.186909	 0.000000 
Mo141	 0.499817	 0.294235	 0.500000 
Mo142	 0.567858	 0.226193	 0.500000 
S143	 0.553479	 0.279856	 1.000000 
S144	 0.553479	 0.279856	 0.000000 
S145	 0.485438	 0.347897	 1.000000 
S146	 0.485438	 0.347897	 0.000000 
Mo147	 0.456680	 0.455222	 0.500000 
Mo148	 0.524722	 0.387181	 0.500000 
S149	 0.510343	 0.440843	 1.000000 
S150	 0.510343	 0.440843	 0.000000 
S151	 0.442301	 0.508885	 1.000000 
S152	 0.442301	 0.508885	 0.000000 
Mo153	 0.413544	 0.616210	 0.500000 
Mo154	 0.481585	 0.548168	 0.500000 
S155	 0.467206	 0.601831	 1.000000 
S156	 0.467206	 0.601831	 0.000000 
S157	 0.399165	 0.669872	 1.000000 
S158	 0.399165	 0.669872	 0.000000 
Mo159	 0.370407	 0.777197	 0.500000 
Mo160	 0.438449	 0.709156	 0.500000 
S161	 0.424070	 0.762819	 1.000000 
S162	 0.424070	 0.762819	 0.000000 
S163	 0.356028	 0.830860	 1.000000 
S164	 0.356028	 0.830860	 0.000000 
Mo165	 0.327271	 0.938185	 0.500000 
Mo166	 0.395312	 0.870144	 0.500000 
S167	 0.380933	 0.923806	 1.000000 
S168	 0.380933	 0.923806	 0.000000 
S169	 0.664657	 0.050827	 1.000000 
S170	 0.664657	 0.050827	 0.000000 
Mo171	 0.635899	 0.158152	 0.500000 
Mo172	 0.703941	 0.090110	 0.500000 
S173	 0.689562	 0.143773	 1.000000 
S174	 0.689562	 0.143773	 0.000000 
S175	 0.621521	 0.211814	 1.000000 
S176	 0.621521	 0.211814	 0.000000 
Mo177	 0.592763	 0.319139	 0.500000 
Mo178	 0.660804	 0.251098	 0.500000 
S179	 0.646425	 0.304761	 1.000000 
S180	 0.646425	 0.304761	 0.000000 
S181	 0.578384	 0.372802	 1.000000 
S182	 0.578384	 0.372802	 0.000000 
Mo183	 0.549626	 0.480127	 0.500000 
Mo184	 0.617668	 0.412086	 0.500000 
S185	 0.603289	 0.465748	 1.000000 
S186	 0.603289	 0.465748	 0.000000 
S187	 0.535248	 0.533790	 1.000000 
S188	 0.535248	 0.533790	 0.000000 
Mo189	 0.506490	 0.641115	 0.500000 
Mo190	 0.574531	 0.573073	 0.500000 
S191	 0.560152	 0.626736	 1.000000 
S192	 0.560152	 0.626736	 0.000000 
S193	 0.492111	 0.694777	 1.000000 
S194	 0.492111	 0.694777	 0.000000 
Mo195	 0.463353	 0.802102	 0.500000 
Mo196	 0.531395	 0.734061	 0.500000 
S197	 0.517016	 0.787723	 1.000000 
S198	 0.517016	 0.787723	 0.000000 
S199	 0.448975	 0.855765	 1.000000 
S200	 0.448975	 0.855765	 0.000000 
Mo201	 0.420217	 0.963090	 0.500000 
Mo202	 0.488258	 0.895049	 0.500000 
S203	 0.473879	 0.948711	 1.000000 
S204	 0.473879	 0.948711	 0.000000 
S205	 0.757603	 0.075732	 1.000000 
S206	 0.757603	 0.075732	 0.000000 
Mo207	 0.728846	 0.183057	 0.500000 
Mo208	 0.796887	 0.115015	 0.500000 
S209	 0.782508	 0.168678	 1.000000 
S210	 0.782508	 0.168678	 0.000000 
S211	 0.714467	 0.236719	 1.000000 
S212	 0.714467	 0.236719	 0.000000 
Mo213	 0.685709	 0.344044	 0.500000 
Mo214	 0.753751	 0.276003	 0.500000 
S215	 0.739372	 0.329665	 1.000000 
S216	 0.739372	 0.329665	 0.000000 
S217	 0.671330	 0.397707	 1.000000 
S218	 0.671330	 0.397707	 0.000000 
Mo219	 0.642573	 0.505032	 0.500000 
Mo220	 0.710614	 0.436991	 0.500000 
S221	 0.696235	 0.490653	 1.000000 
S222	 0.696235	 0.490653	 0.000000 
S223	 0.628194	 0.558694	 1.000000 
S224	 0.628194	 0.558694	 0.000000 
Mo225	 0.599436	 0.666020	 0.500000 
Mo226	 0.667478	 0.597978	 0.500000 
S227	 0.653099	 0.651641	 1.000000 
S228	 0.653099	 0.651641	 0.000000 
S229	 0.585057	 0.719682	 1.000000 
S230	 0.585057	 0.719682	 0.000000 
Mo231	 0.556300	 0.827007	 0.500000 
Mo232	 0.624341	 0.758966	 0.500000 
S233	 0.609962	 0.812628	 1.000000 
S234	 0.609962	 0.812628	 0.000000 
S235	 0.541921	 0.880670	 1.000000 
S236	 0.541921	 0.880670	 0.000000 
Mo237	 0.513163	 0.987995	 0.500000 
Mo238	 0.581205	 0.919953	 0.500000 
S239	 0.566826	 0.973616	 1.000000 
S240	 0.566826	 0.973616	 0.000000 
S241	 0.850550	 0.100636	 1.000000 
S242	 0.850550	 0.100636	 0.000000 
Mo243	 0.821792	 0.207962	 0.500000 
Mo244	 0.889833	 0.139920	 0.500000 
S245	 0.875455	 0.193583	 1.000000 
S246	 0.875455	 0.193583	 0.000000 
S247	 0.807413	 0.261624	 1.000000 
S248	 0.807413	 0.261624	 0.000000 
Mo249	 0.778655	 0.368949	 0.500000 
Mo250	 0.846697	 0.300908	 0.500000 
S251	 0.832318	 0.354570	 1.000000 
S252	 0.832318	 0.354570	 0.000000 
S253	 0.764277	 0.422612	 1.000000 
S254	 0.764277	 0.422612	 0.000000 
Mo255	 0.735519	 0.529937	 0.500000 
Mo256	 0.803560	 0.461895	 0.500000 
S257	 0.789181	 0.515558	 1.000000 
S258	 0.789181	 0.515558	 0.000000 
S259	 0.721140	 0.583599	 1.000000 
S260	 0.721140	 0.583599	 0.000000 
Mo261	 0.692382	 0.690924	 0.500000 
Mo262	 0.760424	 0.622883	 0.500000 
S263	 0.746045	 0.676546	 1.000000 
S264	 0.746045	 0.676546	 0.000000 
S265	 0.678004	 0.744587	 1.000000 
S266	 0.678004	 0.744587	 0.000000 
Mo267	 0.649246	 0.851912	 0.500000 
Mo268	 0.717287	 0.783871	 0.500000 
S269	 0.702908	 0.837533	 1.000000 
S270	 0.702908	 0.837533	 0.000000 
S271	 0.634867	 0.905575	 1.000000 
S272	 0.634867	 0.905575	 0.000000 
Mo273	 0.674151	 0.944858	 0.500000 
S274	 0.659772	 0.998521	 1.000000 
S275	 0.659772	 0.998521	 0.000000 
S276	 0.943496	 0.125541	 1.000000 
S277	 0.943496	 0.125541	 0.000000 
Mo278	 0.914738	 0.232866	 0.500000 
Mo279	 0.982780	 0.164825	 0.500000 
S280	 0.968401	 0.218488	 1.000000 
S281	 0.968401	 0.218488	 0.000000 
S282	 0.900359	 0.286529	 1.000000 
S283	 0.900359	 0.286529	 0.000000 
Mo284	 0.871602	 0.393854	 0.500000 
Mo285	 0.939643	 0.325813	 0.500000 
S286	 0.925264	 0.379475	 1.000000 
S287	 0.925264	 0.379475	 0.000000 
S288	 0.857223	 0.447517	 1.000000 
S289	 0.857223	 0.447517	 0.000000 
Mo290	 0.828465	 0.554842	 0.500000 
Mo291	 0.896507	 0.486800	 0.500000 
S292	 0.882128	 0.540463	 1.000000 
S293	 0.882128	 0.540463	 0.000000 
S294	 0.814086	 0.608504	 1.000000 
S295	 0.814086	 0.608504	 0.000000 
Mo296	 0.785329	 0.715829	 0.500000 
Mo297	 0.853370	 0.647788	 0.500000 
S298	 0.838991	 0.701450	 1.000000 
S299	 0.838991	 0.701450	 0.000000 
S300	 0.770950	 0.769492	 1.000000 
S301	 0.770950	 0.769492	 0.000000 
Mo302	 0.742192	 0.876817	 0.500000 
Mo303	 0.810234	 0.808776	 0.500000 
S304	 0.795855	 0.862438	 1.000000 
S305	 0.795855	 0.862438	 0.000000 
S306	 0.727813	 0.930479	 1.000000 
S307	 0.727813	 0.930479	 0.000000 
Mo308	 0.767097	 0.969763	 0.500000 
S309	 0.993306	 0.311434	 1.000000 
S310	 0.993306	 0.311434	 0.000000 
Mo311	 0.964548	 0.418759	 0.500000 
S312	 0.950169	 0.472421	 1.000000 
S313	 0.950169	 0.472421	 0.000000 
Mo314	 0.921411	 0.579747	 0.500000 
Mo315	 0.989453	 0.511705	 0.500000 
S316	 0.975074	 0.565368	 1.000000 
S317	 0.975074	 0.565368	 0.000000 
S318	 0.907033	 0.633409	 1.000000 
S319	 0.907033	 0.633409	 0.000000 
Mo320	 0.878275	 0.740734	 0.500000 
Mo321	 0.946316	 0.672693	 0.500000 
S322	 0.931938	 0.726355	 1.000000 
S323	 0.931938	 0.726355	 0.000000 
S324	 0.863896	 0.794397	 1.000000 
S325	 0.863896	 0.794397	 0.000000 
Mo326	 0.835138	 0.901722	 0.500000 
Mo327	 0.903180	 0.833680	 0.500000 
S328	 0.888801	 0.887343	 1.000000 
S329	 0.888801	 0.887343	 0.000000 
S330	 0.820760	 0.955384	 1.000000 
S331	 0.820760	 0.955384	 0.000000 
Mo332	 0.860043	 0.994668	 0.500000 
#                 ---end-of-data-block---
