data_Single Layer of MoS2nx 10 ny 6 nz 1
_cell_length_a               32.423991
_cell_length_b               32.423991
_cell_length_c               3.080000
_cell_angle_alpha          90.000000
_cell_angle_beta           90.000000
_cell_angle_gamma          90.000000
_symmetry_cell_setting          Triclinic
_symmetry_space_group_name_H-M 'P 1' 
loop_
_atom_site_label
_atom_site_fract_x
_atom_site_fract_y
_atom_site_fract_z
S1	 0.236168	 0.041808	 1.000000 
S2	 0.236168	 0.041808	 0.000000 
Mo3	 0.180613	 0.138033	 0.500000 
Mo4	 0.263946	 0.089921	 0.500000 
S5	 0.236168	 0.138033	 1.000000 
S6	 0.236168	 0.138033	 0.000000 
S7	 0.152835	 0.186146	 1.000000 
S8	 0.152835	 0.186146	 0.000000 
Mo9	 0.097279	 0.282371	 0.500000 
Mo10	 0.180613	 0.234258	 0.500000 
S11	 0.152835	 0.282371	 1.000000 
S12	 0.152835	 0.282371	 0.000000 
S13	 0.069501	 0.330483	 1.000000 
S14	 0.069501	 0.330483	 0.000000 
Mo15	 0.013946	 0.426708	 0.500000 
Mo16	 0.097279	 0.378596	 0.500000 
S17	 0.069501	 0.426708	 1.000000 
S18	 0.069501	 0.426708	 0.000000 
Mo19	 0.013946	 0.522933	 0.500000 
Mo20	 0.347279	 0.041808	 0.500000 
S21	 0.402835	 0.041808	 1.000000 
S22	 0.402835	 0.041808	 0.000000 
S23	 0.319501	 0.089921	 1.000000 
S24	 0.319501	 0.089921	 0.000000 
Mo25	 0.263946	 0.186146	 0.500000 
Mo26	 0.347279	 0.138033	 0.500000 
S27	 0.319501	 0.186146	 1.000000 
S28	 0.319501	 0.186146	 0.000000 
S29	 0.236168	 0.234258	 1.000000 
S30	 0.236168	 0.234258	 0.000000 
Mo31	 0.180613	 0.330483	 0.500000 
Mo32	 0.263946	 0.282371	 0.500000 
S33	 0.236168	 0.330483	 1.000000 
S34	 0.236168	 0.330483	 0.000000 
S35	 0.152835	 0.378596	 1.000000 
S36	 0.152835	 0.378596	 0.000000 
Mo37	 0.097279	 0.474821	 0.500000 
Mo38	 0.180613	 0.426708	 0.500000 
S39	 0.152835	 0.474821	 1.000000 
S40	 0.152835	 0.474821	 0.000000 
S41	 0.069501	 0.522933	 1.000000 
S42	 0.069501	 0.522933	 0.000000 
Mo43	 0.013946	 0.619158	 0.500000 
Mo44	 0.097279	 0.571046	 0.500000 
S45	 0.069501	 0.619158	 1.000000 
S46	 0.069501	 0.619158	 0.000000 
Mo47	 0.013946	 0.715383	 0.500000 
Mo48	 0.430613	 0.089921	 0.500000 
Mo49	 0.513946	 0.041808	 0.500000 
S50	 0.486168	 0.089921	 1.000000 
S51	 0.486168	 0.089921	 0.000000 
S52	 0.402835	 0.138033	 1.000000 
S53	 0.402835	 0.138033	 0.000000 
Mo54	 0.347279	 0.234258	 0.500000 
Mo55	 0.430613	 0.186146	 0.500000 
S56	 0.402835	 0.234258	 1.000000 
S57	 0.402835	 0.234258	 0.000000 
S58	 0.319501	 0.282371	 1.000000 
S59	 0.319501	 0.282371	 0.000000 
Mo60	 0.263946	 0.378596	 0.500000 
Mo61	 0.347279	 0.330483	 0.500000 
S62	 0.319501	 0.378596	 1.000000 
S63	 0.319501	 0.378596	 0.000000 
S64	 0.236168	 0.426708	 1.000000 
S65	 0.236168	 0.426708	 0.000000 
Mo66	 0.180613	 0.522933	 0.500000 
Mo67	 0.263946	 0.474821	 0.500000 
S68	 0.236168	 0.522933	 1.000000 
S69	 0.236168	 0.522933	 0.000000 
S70	 0.152835	 0.571046	 1.000000 
S71	 0.152835	 0.571046	 0.000000 
Mo72	 0.097279	 0.667271	 0.500000 
Mo73	 0.180613	 0.619158	 0.500000 
S74	 0.152835	 0.667271	 1.000000 
S75	 0.152835	 0.667271	 0.000000 
S76	 0.069501	 0.715383	 1.000000 
S77	 0.069501	 0.715383	 0.000000 
Mo78	 0.097279	 0.763496	 0.500000 
S79	 0.069501	 0.811608	 1.000000 
S80	 0.069501	 0.811608	 0.000000 
S81	 0.569501	 0.041808	 1.000000 
S82	 0.569501	 0.041808	 0.000000 
Mo83	 0.513946	 0.138033	 0.500000 
Mo84	 0.597279	 0.089921	 0.500000 
S85	 0.569501	 0.138033	 1.000000 
S86	 0.569501	 0.138033	 0.000000 
S87	 0.486168	 0.186146	 1.000000 
S88	 0.486168	 0.186146	 0.000000 
Mo89	 0.430613	 0.282371	 0.500000 
Mo90	 0.513946	 0.234258	 0.500000 
S91	 0.486168	 0.282371	 1.000000 
S92	 0.486168	 0.282371	 0.000000 
S93	 0.402835	 0.330483	 1.000000 
S94	 0.402835	 0.330483	 0.000000 
Mo95	 0.347279	 0.426708	 0.500000 
Mo96	 0.430613	 0.378596	 0.500000 
S97	 0.402835	 0.426708	 1.000000 
S98	 0.402835	 0.426708	 0.000000 
S99	 0.319501	 0.474821	 1.000000 
S100	 0.319501	 0.474821	 0.000000 
Mo101	 0.263946	 0.571046	 0.500000 
Mo102	 0.347279	 0.522933	 0.500000 
S103	 0.319501	 0.571046	 1.000000 
S104	 0.319501	 0.571046	 0.000000 
S105	 0.236168	 0.619158	 1.000000 
S106	 0.236168	 0.619158	 0.000000 
Mo107	 0.180613	 0.715383	 0.500000 
Mo108	 0.263946	 0.667271	 0.500000 
S109	 0.236168	 0.715383	 1.000000 
S110	 0.236168	 0.715383	 0.000000 
S111	 0.152835	 0.763496	 1.000000 
S112	 0.152835	 0.763496	 0.000000 
Mo113	 0.180613	 0.811608	 0.500000 
S114	 0.152835	 0.859721	 1.000000 
S115	 0.152835	 0.859721	 0.000000 
S116	 0.652835	 0.089921	 1.000000 
S117	 0.652835	 0.089921	 0.000000 
Mo118	 0.597279	 0.186146	 0.500000 
Mo119	 0.680613	 0.138033	 0.500000 
S120	 0.652835	 0.186146	 1.000000 
S121	 0.652835	 0.186146	 0.000000 
S122	 0.569501	 0.234258	 1.000000 
S123	 0.569501	 0.234258	 0.000000 
Mo124	 0.513946	 0.330483	 0.500000 
Mo125	 0.597279	 0.282371	 0.500000 
S126	 0.569501	 0.330483	 1.000000 
S127	 0.569501	 0.330483	 0.000000 
S128	 0.486168	 0.378596	 1.000000 
S129	 0.486168	 0.378596	 0.000000 
Mo130	 0.430613	 0.474821	 0.500000 
Mo131	 0.513946	 0.426708	 0.500000 
S132	 0.486168	 0.474821	 1.000000 
S133	 0.486168	 0.474821	 0.000000 
S134	 0.402835	 0.522933	 1.000000 
S135	 0.402835	 0.522933	 0.000000 
Mo136	 0.347279	 0.619158	 0.500000 
Mo137	 0.430613	 0.571046	 0.500000 
S138	 0.402835	 0.619158	 1.000000 
S139	 0.402835	 0.619158	 0.000000 
S140	 0.319501	 0.667271	 1.000000 
S141	 0.319501	 0.667271	 0.000000 
Mo142	 0.263946	 0.763496	 0.500000 
Mo143	 0.347279	 0.715383	 0.500000 
S144	 0.319501	 0.763496	 1.000000 
S145	 0.319501	 0.763496	 0.000000 
S146	 0.236168	 0.811608	 1.000000 
S147	 0.236168	 0.811608	 0.000000 
Mo148	 0.680613	 0.041808	 0.500000 
Mo149	 0.263946	 0.859721	 0.500000 
S150	 0.236168	 0.907833	 1.000000 
S151	 0.236168	 0.907833	 0.000000 
S152	 0.736168	 0.138033	 1.000000 
S153	 0.736168	 0.138033	 0.000000 
Mo154	 0.680613	 0.234258	 0.500000 
Mo155	 0.763946	 0.186146	 0.500000 
S156	 0.736168	 0.234258	 1.000000 
S157	 0.736168	 0.234258	 0.000000 
S158	 0.652835	 0.282371	 1.000000 
S159	 0.652835	 0.282371	 0.000000 
Mo160	 0.597279	 0.378596	 0.500000 
Mo161	 0.680613	 0.330483	 0.500000 
S162	 0.652835	 0.378596	 1.000000 
S163	 0.652835	 0.378596	 0.000000 
S164	 0.569501	 0.426708	 1.000000 
S165	 0.569501	 0.426708	 0.000000 
Mo166	 0.513946	 0.522933	 0.500000 
Mo167	 0.597279	 0.474821	 0.500000 
S168	 0.569501	 0.522933	 1.000000 
S169	 0.569501	 0.522933	 0.000000 
S170	 0.486168	 0.571046	 1.000000 
S171	 0.486168	 0.571046	 0.000000 
Mo172	 0.430613	 0.667271	 0.500000 
Mo173	 0.513946	 0.619158	 0.500000 
S174	 0.486168	 0.667271	 1.000000 
S175	 0.486168	 0.667271	 0.000000 
S176	 0.402835	 0.715383	 1.000000 
S177	 0.402835	 0.715383	 0.000000 
Mo178	 0.347279	 0.811608	 0.500000 
Mo179	 0.430613	 0.763496	 0.500000 
S180	 0.402835	 0.811608	 1.000000 
S181	 0.402835	 0.811608	 0.000000 
S182	 0.319501	 0.859721	 1.000000 
S183	 0.319501	 0.859721	 0.000000 
Mo184	 0.763946	 0.089921	 0.500000 
Mo185	 0.347279	 0.907833	 0.500000 
S186	 0.319501	 0.955946	 1.000000 
S187	 0.319501	 0.955946	 0.000000 
S188	 0.819501	 0.186146	 1.000000 
S189	 0.819501	 0.186146	 0.000000 
Mo190	 0.763946	 0.282371	 0.500000 
Mo191	 0.847279	 0.234258	 0.500000 
S192	 0.819501	 0.282371	 1.000000 
S193	 0.819501	 0.282371	 0.000000 
S194	 0.736168	 0.330483	 1.000000 
S195	 0.736168	 0.330483	 0.000000 
Mo196	 0.680613	 0.426708	 0.500000 
Mo197	 0.763946	 0.378596	 0.500000 
S198	 0.736168	 0.426708	 1.000000 
S199	 0.736168	 0.426708	 0.000000 
S200	 0.652835	 0.474821	 1.000000 
S201	 0.652835	 0.474821	 0.000000 
Mo202	 0.597279	 0.571046	 0.500000 
Mo203	 0.680613	 0.522933	 0.500000 
S204	 0.652835	 0.571046	 1.000000 
S205	 0.652835	 0.571046	 0.000000 
S206	 0.569501	 0.619158	 1.000000 
S207	 0.569501	 0.619158	 0.000000 
Mo208	 0.513946	 0.715383	 0.500000 
Mo209	 0.597279	 0.667271	 0.500000 
S210	 0.569501	 0.715383	 1.000000 
S211	 0.569501	 0.715383	 0.000000 
S212	 0.486168	 0.763496	 1.000000 
S213	 0.486168	 0.763496	 0.000000 
Mo214	 0.430613	 0.859721	 0.500000 
Mo215	 0.513946	 0.811608	 0.500000 
S216	 0.486168	 0.859721	 1.000000 
S217	 0.486168	 0.859721	 0.000000 
S218	 0.402835	 0.907833	 1.000000 
S219	 0.402835	 0.907833	 0.000000 
Mo220	 0.847279	 0.138033	 0.500000 
Mo221	 0.430613	 0.955946	 0.500000 
S222	 0.902835	 0.234258	 1.000000 
S223	 0.902835	 0.234258	 0.000000 
Mo224	 0.847279	 0.330483	 0.500000 
Mo225	 0.930613	 0.282371	 0.500000 
S226	 0.902835	 0.330483	 1.000000 
S227	 0.902835	 0.330483	 0.000000 
S228	 0.819501	 0.378596	 1.000000 
S229	 0.819501	 0.378596	 0.000000 
Mo230	 0.763946	 0.474821	 0.500000 
Mo231	 0.847279	 0.426708	 0.500000 
S232	 0.819501	 0.474821	 1.000000 
S233	 0.819501	 0.474821	 0.000000 
S234	 0.736168	 0.522933	 1.000000 
S235	 0.736168	 0.522933	 0.000000 
Mo236	 0.680613	 0.619158	 0.500000 
Mo237	 0.763946	 0.571046	 0.500000 
S238	 0.736168	 0.619158	 1.000000 
S239	 0.736168	 0.619158	 0.000000 
S240	 0.652835	 0.667271	 1.000000 
S241	 0.652835	 0.667271	 0.000000 
Mo242	 0.597279	 0.763496	 0.500000 
Mo243	 0.680613	 0.715383	 0.500000 
S244	 0.652835	 0.763496	 1.000000 
S245	 0.652835	 0.763496	 0.000000 
S246	 0.569501	 0.811608	 1.000000 
S247	 0.569501	 0.811608	 0.000000 
Mo248	 0.513946	 0.907833	 0.500000 
Mo249	 0.597279	 0.859721	 0.500000 
S250	 0.569501	 0.907833	 1.000000 
S251	 0.569501	 0.907833	 0.000000 
S252	 0.486168	 0.955946	 1.000000 
S253	 0.486168	 0.955946	 0.000000 
Mo254	 0.930613	 0.186146	 0.500000 
S255	 0.986168	 0.282371	 1.000000 
S256	 0.986168	 0.282371	 0.000000 
Mo257	 0.930613	 0.378596	 0.500000 
S258	 0.986168	 0.378596	 1.000000 
S259	 0.986168	 0.378596	 0.000000 
S260	 0.902835	 0.426708	 1.000000 
S261	 0.902835	 0.426708	 0.000000 
Mo262	 0.847279	 0.522933	 0.500000 
Mo263	 0.930613	 0.474821	 0.500000 
S264	 0.902835	 0.522933	 1.000000 
S265	 0.902835	 0.522933	 0.000000 
S266	 0.819501	 0.571046	 1.000000 
S267	 0.819501	 0.571046	 0.000000 
Mo268	 0.763946	 0.667271	 0.500000 
Mo269	 0.847279	 0.619158	 0.500000 
S270	 0.819501	 0.667271	 1.000000 
S271	 0.819501	 0.667271	 0.000000 
S272	 0.736168	 0.715383	 1.000000 
S273	 0.736168	 0.715383	 0.000000 
Mo274	 0.680613	 0.811608	 0.500000 
Mo275	 0.763946	 0.763496	 0.500000 
S276	 0.736168	 0.811608	 1.000000 
S277	 0.736168	 0.811608	 0.000000 
S278	 0.652835	 0.859721	 1.000000 
S279	 0.652835	 0.859721	 0.000000 
Mo280	 0.597279	 0.955946	 0.500000 
Mo281	 0.680613	 0.907833	 0.500000 
S282	 0.652835	 0.955946	 1.000000 
S283	 0.652835	 0.955946	 0.000000 
S284	 0.986168	 0.474821	 1.000000 
S285	 0.986168	 0.474821	 0.000000 
Mo286	 0.930613	 0.571046	 0.500000 
S287	 0.986168	 0.571046	 1.000000 
S288	 0.986168	 0.571046	 0.000000 
S289	 0.902835	 0.619158	 1.000000 
S290	 0.902835	 0.619158	 0.000000 
Mo291	 0.847279	 0.715383	 0.500000 
Mo292	 0.930613	 0.667271	 0.500000 
S293	 0.902835	 0.715383	 1.000000 
S294	 0.902835	 0.715383	 0.000000 
S295	 0.819501	 0.763496	 1.000000 
S296	 0.819501	 0.763496	 0.000000 
Mo297	 0.763946	 0.859721	 0.500000 
Mo298	 0.847279	 0.811608	 0.500000 
S299	 0.819501	 0.859721	 1.000000 
S300	 0.819501	 0.859721	 0.000000 
S301	 0.736168	 0.907833	 1.000000 
S302	 0.736168	 0.907833	 0.000000 
Mo303	 0.763946	 0.955946	 0.500000 
#                 ---end-of-data-block---
