data_Single Layer of MoS2nx 10 ny 6 nz 1
_cell_length_a               32.423991
_cell_length_b               32.423991
_cell_length_c               3.080000
_cell_angle_alpha          90.000000
_cell_angle_beta           90.000000
_cell_angle_gamma          90.000000
_symmetry_cell_setting          Triclinic
_symmetry_space_group_name_H-M 'P 1' 
loop_
_atom_site_label
_atom_site_fract_x
_atom_site_fract_y
_atom_site_fract_z
S1	 0.320681	 0.011590	 1.000000 
S2	 0.320681	 0.011590	 0.000000 
Mo3	 0.265125	 0.107815	 0.500000 
Mo4	 0.348459	 0.059703	 0.500000 
S5	 0.320681	 0.107815	 1.000000 
S6	 0.320681	 0.107815	 0.000000 
S7	 0.237348	 0.155928	 1.000000 
S8	 0.237348	 0.155928	 0.000000 
Mo9	 0.181792	 0.252153	 0.500000 
Mo10	 0.265125	 0.204040	 0.500000 
S11	 0.237348	 0.252153	 1.000000 
S12	 0.237348	 0.252153	 0.000000 
S13	 0.154014	 0.300265	 1.000000 
S14	 0.154014	 0.300265	 0.000000 
Mo15	 0.098459	 0.396491	 0.500000 
Mo16	 0.181792	 0.348378	 0.500000 
S17	 0.154014	 0.396491	 1.000000 
S18	 0.154014	 0.396491	 0.000000 
S19	 0.070681	 0.444603	 1.000000 
S20	 0.070681	 0.444603	 0.000000 
Mo21	 0.015125	 0.540828	 0.500000 
Mo22	 0.098459	 0.492716	 0.500000 
S23	 0.070681	 0.540828	 1.000000 
S24	 0.070681	 0.540828	 0.000000 
Mo25	 0.015125	 0.637053	 0.500000 
Mo26	 0.431792	 0.011590	 0.500000 
S27	 0.487348	 0.011590	 1.000000 
S28	 0.487348	 0.011590	 0.000000 
S29	 0.404014	 0.059703	 1.000000 
S30	 0.404014	 0.059703	 0.000000 
Mo31	 0.348459	 0.155928	 0.500000 
Mo32	 0.431792	 0.107815	 0.500000 
S33	 0.404014	 0.155928	 1.000000 
S34	 0.404014	 0.155928	 0.000000 
S35	 0.320681	 0.204040	 1.000000 
S36	 0.320681	 0.204040	 0.000000 
Mo37	 0.265125	 0.300265	 0.500000 
Mo38	 0.348459	 0.252153	 0.500000 
S39	 0.320681	 0.300265	 1.000000 
S40	 0.320681	 0.300265	 0.000000 
S41	 0.237348	 0.348378	 1.000000 
S42	 0.237348	 0.348378	 0.000000 
Mo43	 0.181792	 0.444603	 0.500000 
Mo44	 0.265125	 0.396491	 0.500000 
S45	 0.237348	 0.444603	 1.000000 
S46	 0.237348	 0.444603	 0.000000 
S47	 0.154014	 0.492716	 1.000000 
S48	 0.154014	 0.492716	 0.000000 
Mo49	 0.098459	 0.588941	 0.500000 
Mo50	 0.181792	 0.540828	 0.500000 
S51	 0.154014	 0.588941	 1.000000 
S52	 0.154014	 0.588941	 0.000000 
S53	 0.070681	 0.637053	 1.000000 
S54	 0.070681	 0.637053	 0.000000 
Mo55	 0.015125	 0.733278	 0.500000 
Mo56	 0.098459	 0.685166	 0.500000 
S57	 0.070681	 0.733278	 1.000000 
S58	 0.070681	 0.733278	 0.000000 
Mo59	 0.515125	 0.059703	 0.500000 
Mo60	 0.598459	 0.011590	 0.500000 
S61	 0.570681	 0.059703	 1.000000 
S62	 0.570681	 0.059703	 0.000000 
S63	 0.487348	 0.107815	 1.000000 
S64	 0.487348	 0.107815	 0.000000 
Mo65	 0.431792	 0.204040	 0.500000 
Mo66	 0.515125	 0.155928	 0.500000 
S67	 0.487348	 0.204040	 1.000000 
S68	 0.487348	 0.204040	 0.000000 
S69	 0.404014	 0.252153	 1.000000 
S70	 0.404014	 0.252153	 0.000000 
Mo71	 0.348459	 0.348378	 0.500000 
Mo72	 0.431792	 0.300265	 0.500000 
S73	 0.404014	 0.348378	 1.000000 
S74	 0.404014	 0.348378	 0.000000 
S75	 0.320681	 0.396491	 1.000000 
S76	 0.320681	 0.396491	 0.000000 
Mo77	 0.265125	 0.492716	 0.500000 
Mo78	 0.348459	 0.444603	 0.500000 
S79	 0.320681	 0.492716	 1.000000 
S80	 0.320681	 0.492716	 0.000000 
S81	 0.237348	 0.540828	 1.000000 
S82	 0.237348	 0.540828	 0.000000 
Mo83	 0.181792	 0.637053	 0.500000 
Mo84	 0.265125	 0.588941	 0.500000 
S85	 0.237348	 0.637053	 1.000000 
S86	 0.237348	 0.637053	 0.000000 
S87	 0.154014	 0.685166	 1.000000 
S88	 0.154014	 0.685166	 0.000000 
Mo89	 0.098459	 0.781391	 0.500000 
Mo90	 0.181792	 0.733278	 0.500000 
S91	 0.154014	 0.781391	 1.000000 
S92	 0.154014	 0.781391	 0.000000 
S93	 0.654014	 0.011590	 1.000000 
S94	 0.654014	 0.011590	 0.000000 
Mo95	 0.598459	 0.107815	 0.500000 
Mo96	 0.681792	 0.059703	 0.500000 
S97	 0.654014	 0.107815	 1.000000 
S98	 0.654014	 0.107815	 0.000000 
S99	 0.570681	 0.155928	 1.000000 
S100	 0.570681	 0.155928	 0.000000 
Mo101	 0.515125	 0.252153	 0.500000 
Mo102	 0.598459	 0.204040	 0.500000 
S103	 0.570681	 0.252153	 1.000000 
S104	 0.570681	 0.252153	 0.000000 
S105	 0.487348	 0.300265	 1.000000 
S106	 0.487348	 0.300265	 0.000000 
Mo107	 0.431792	 0.396491	 0.500000 
Mo108	 0.515125	 0.348378	 0.500000 
S109	 0.487348	 0.396491	 1.000000 
S110	 0.487348	 0.396491	 0.000000 
S111	 0.404014	 0.444603	 1.000000 
S112	 0.404014	 0.444603	 0.000000 
Mo113	 0.348459	 0.540828	 0.500000 
Mo114	 0.431792	 0.492716	 0.500000 
S115	 0.404014	 0.540828	 1.000000 
S116	 0.404014	 0.540828	 0.000000 
S117	 0.320681	 0.588941	 1.000000 
S118	 0.320681	 0.588941	 0.000000 
Mo119	 0.265125	 0.685166	 0.500000 
Mo120	 0.348459	 0.637053	 0.500000 
S121	 0.320681	 0.685166	 1.000000 
S122	 0.320681	 0.685166	 0.000000 
S123	 0.237348	 0.733278	 1.000000 
S124	 0.237348	 0.733278	 0.000000 
Mo125	 0.181792	 0.829503	 0.500000 
Mo126	 0.265125	 0.781391	 0.500000 
S127	 0.237348	 0.829503	 1.000000 
S128	 0.237348	 0.829503	 0.000000 
S129	 0.737348	 0.059703	 1.000000 
S130	 0.737348	 0.059703	 0.000000 
Mo131	 0.681792	 0.155928	 0.500000 
Mo132	 0.765125	 0.107815	 0.500000 
S133	 0.737348	 0.155928	 1.000000 
S134	 0.737348	 0.155928	 0.000000 
S135	 0.654014	 0.204040	 1.000000 
S136	 0.654014	 0.204040	 0.000000 
Mo137	 0.598459	 0.300265	 0.500000 
Mo138	 0.681792	 0.252153	 0.500000 
S139	 0.654014	 0.300265	 1.000000 
S140	 0.654014	 0.300265	 0.000000 
S141	 0.570681	 0.348378	 1.000000 
S142	 0.570681	 0.348378	 0.000000 
Mo143	 0.515125	 0.444603	 0.500000 
Mo144	 0.598459	 0.396491	 0.500000 
S145	 0.570681	 0.444603	 1.000000 
S146	 0.570681	 0.444603	 0.000000 
S147	 0.487348	 0.492716	 1.000000 
S148	 0.487348	 0.492716	 0.000000 
Mo149	 0.431792	 0.588941	 0.500000 
Mo150	 0.515125	 0.540828	 0.500000 
S151	 0.487348	 0.588941	 1.000000 
S152	 0.487348	 0.588941	 0.000000 
S153	 0.404014	 0.637053	 1.000000 
S154	 0.404014	 0.637053	 0.000000 
Mo155	 0.348459	 0.733278	 0.500000 
Mo156	 0.431792	 0.685166	 0.500000 
S157	 0.404014	 0.733278	 1.000000 
S158	 0.404014	 0.733278	 0.000000 
S159	 0.320681	 0.781391	 1.000000 
S160	 0.320681	 0.781391	 0.000000 
Mo161	 0.265125	 0.877616	 0.500000 
Mo162	 0.348459	 0.829503	 0.500000 
S163	 0.320681	 0.877616	 1.000000 
S164	 0.320681	 0.877616	 0.000000 
S165	 0.820681	 0.107815	 1.000000 
S166	 0.820681	 0.107815	 0.000000 
Mo167	 0.765125	 0.204040	 0.500000 
Mo168	 0.848459	 0.155928	 0.500000 
S169	 0.820681	 0.204040	 1.000000 
S170	 0.820681	 0.204040	 0.000000 
S171	 0.737348	 0.252153	 1.000000 
S172	 0.737348	 0.252153	 0.000000 
Mo173	 0.681792	 0.348378	 0.500000 
Mo174	 0.765125	 0.300265	 0.500000 
S175	 0.737348	 0.348378	 1.000000 
S176	 0.737348	 0.348378	 0.000000 
S177	 0.654014	 0.396491	 1.000000 
S178	 0.654014	 0.396491	 0.000000 
Mo179	 0.598459	 0.492716	 0.500000 
Mo180	 0.681792	 0.444603	 0.500000 
S181	 0.654014	 0.492716	 1.000000 
S182	 0.654014	 0.492716	 0.000000 
S183	 0.570681	 0.540828	 1.000000 
S184	 0.570681	 0.540828	 0.000000 
Mo185	 0.515125	 0.637053	 0.500000 
Mo186	 0.598459	 0.588941	 0.500000 
S187	 0.570681	 0.637053	 1.000000 
S188	 0.570681	 0.637053	 0.000000 
S189	 0.487348	 0.685166	 1.000000 
S190	 0.487348	 0.685166	 0.000000 
Mo191	 0.431792	 0.781391	 0.500000 
Mo192	 0.515125	 0.733278	 0.500000 
S193	 0.487348	 0.781391	 1.000000 
S194	 0.487348	 0.781391	 0.000000 
S195	 0.404014	 0.829503	 1.000000 
S196	 0.404014	 0.829503	 0.000000 
Mo197	 0.348459	 0.925728	 0.500000 
Mo198	 0.431792	 0.877616	 0.500000 
S199	 0.404014	 0.925728	 1.000000 
S200	 0.404014	 0.925728	 0.000000 
S201	 0.904014	 0.155928	 1.000000 
S202	 0.904014	 0.155928	 0.000000 
Mo203	 0.848459	 0.252153	 0.500000 
Mo204	 0.931792	 0.204040	 0.500000 
S205	 0.904014	 0.252153	 1.000000 
S206	 0.904014	 0.252153	 0.000000 
S207	 0.820681	 0.300265	 1.000000 
S208	 0.820681	 0.300265	 0.000000 
Mo209	 0.765125	 0.396491	 0.500000 
Mo210	 0.848459	 0.348378	 0.500000 
S211	 0.820681	 0.396491	 1.000000 
S212	 0.820681	 0.396491	 0.000000 
S213	 0.737348	 0.444603	 1.000000 
S214	 0.737348	 0.444603	 0.000000 
Mo215	 0.681792	 0.540828	 0.500000 
Mo216	 0.765125	 0.492716	 0.500000 
S217	 0.737348	 0.540828	 1.000000 
S218	 0.737348	 0.540828	 0.000000 
S219	 0.654014	 0.588941	 1.000000 
S220	 0.654014	 0.588941	 0.000000 
Mo221	 0.598459	 0.685166	 0.500000 
Mo222	 0.681792	 0.637053	 0.500000 
S223	 0.654014	 0.685166	 1.000000 
S224	 0.654014	 0.685166	 0.000000 
S225	 0.570681	 0.733278	 1.000000 
S226	 0.570681	 0.733278	 0.000000 
Mo227	 0.515125	 0.829503	 0.500000 
Mo228	 0.598459	 0.781391	 0.500000 
S229	 0.570681	 0.829503	 1.000000 
S230	 0.570681	 0.829503	 0.000000 
S231	 0.487348	 0.877616	 1.000000 
S232	 0.487348	 0.877616	 0.000000 
Mo233	 0.431792	 0.973841	 0.500000 
Mo234	 0.515125	 0.925728	 0.500000 
S235	 0.487348	 0.973841	 1.000000 
S236	 0.487348	 0.973841	 0.000000 
S237	 0.987348	 0.204040	 1.000000 
S238	 0.987348	 0.204040	 0.000000 
Mo239	 0.931792	 0.300265	 0.500000 
S240	 0.987348	 0.300265	 1.000000 
S241	 0.987348	 0.300265	 0.000000 
S242	 0.904014	 0.348378	 1.000000 
S243	 0.904014	 0.348378	 0.000000 
Mo244	 0.848459	 0.444603	 0.500000 
Mo245	 0.931792	 0.396491	 0.500000 
S246	 0.904014	 0.444603	 1.000000 
S247	 0.904014	 0.444603	 0.000000 
S248	 0.820681	 0.492716	 1.000000 
S249	 0.820681	 0.492716	 0.000000 
Mo250	 0.765125	 0.588941	 0.500000 
Mo251	 0.848459	 0.540828	 0.500000 
S252	 0.820681	 0.588941	 1.000000 
S253	 0.820681	 0.588941	 0.000000 
S254	 0.737348	 0.637053	 1.000000 
S255	 0.737348	 0.637053	 0.000000 
Mo256	 0.681792	 0.733278	 0.500000 
Mo257	 0.765125	 0.685166	 0.500000 
S258	 0.737348	 0.733278	 1.000000 
S259	 0.737348	 0.733278	 0.000000 
S260	 0.654014	 0.781391	 1.000000 
S261	 0.654014	 0.781391	 0.000000 
Mo262	 0.598459	 0.877616	 0.500000 
Mo263	 0.681792	 0.829503	 0.500000 
S264	 0.654014	 0.877616	 1.000000 
S265	 0.654014	 0.877616	 0.000000 
S266	 0.570681	 0.925728	 1.000000 
S267	 0.570681	 0.925728	 0.000000 
Mo268	 0.598459	 0.973841	 0.500000 
S269	 0.987348	 0.396491	 1.000000 
S270	 0.987348	 0.396491	 0.000000 
Mo271	 0.931792	 0.492716	 0.500000 
S272	 0.987348	 0.492716	 1.000000 
S273	 0.987348	 0.492716	 0.000000 
S274	 0.904014	 0.540828	 1.000000 
S275	 0.904014	 0.540828	 0.000000 
Mo276	 0.848459	 0.637053	 0.500000 
Mo277	 0.931792	 0.588941	 0.500000 
S278	 0.904014	 0.637053	 1.000000 
S279	 0.904014	 0.637053	 0.000000 
S280	 0.820681	 0.685166	 1.000000 
S281	 0.820681	 0.685166	 0.000000 
Mo282	 0.765125	 0.781391	 0.500000 
Mo283	 0.848459	 0.733278	 0.500000 
S284	 0.820681	 0.781391	 1.000000 
S285	 0.820681	 0.781391	 0.000000 
S286	 0.737348	 0.829503	 1.000000 
S287	 0.737348	 0.829503	 0.000000 
Mo288	 0.681792	 0.925728	 0.500000 
Mo289	 0.765125	 0.877616	 0.500000 
S290	 0.737348	 0.925728	 1.000000 
S291	 0.737348	 0.925728	 0.000000 
S292	 0.654014	 0.973841	 1.000000 
S293	 0.654014	 0.973841	 0.000000 
Mo294	 0.265125	 0.011590	 0.500000 
S295	 0.237348	 0.059703	 1.000000 
S296	 0.237348	 0.059703	 0.000000 
S297	 0.987348	 0.588941	 1.000000 
S298	 0.987348	 0.588941	 0.000000 
Mo299	 0.931792	 0.685166	 0.500000 
Mo300	 0.181792	 0.155928	 0.500000 
S301	 0.154014	 0.204040	 1.000000 
S302	 0.154014	 0.204040	 0.000000 
S303	 0.904014	 0.733278	 1.000000 
S304	 0.904014	 0.733278	 0.000000 
Mo305	 0.848459	 0.829503	 0.500000 
Mo306	 0.098459	 0.300265	 0.500000 
S307	 0.070681	 0.348378	 1.000000 
S308	 0.070681	 0.348378	 0.000000 
S309	 0.820681	 0.877616	 1.000000 
S310	 0.820681	 0.877616	 0.000000 
Mo311	 0.765125	 0.973841	 0.500000 
Mo312	 0.015125	 0.444603	 0.500000 
#                 ---end-of-data-block---
