data_Single Layer of MoS2nx 10 ny 6 nz 1
_cell_length_a               32.423991
_cell_length_b               32.423991
_cell_length_c               3.080000
_cell_angle_alpha          90.000000
_cell_angle_beta           90.000000
_cell_angle_gamma          90.000000
_symmetry_cell_setting          Triclinic
_symmetry_space_group_name_H-M 'P 1' 
loop_
_atom_site_label
_atom_site_fract_x
_atom_site_fract_y
_atom_site_fract_z
S1	 0.427492	 0.003834	 1.000000 
S2	 0.427492	 0.003834	 0.000000 
S3	 0.334545	 0.028739	 1.000000 
S4	 0.334545	 0.028739	 0.000000 
Mo5	 0.255978	 0.107307	 0.500000 
Mo6	 0.348924	 0.082402	 0.500000 
S7	 0.309640	 0.121685	 1.000000 
S8	 0.309640	 0.121685	 0.000000 
S9	 0.216694	 0.146590	 1.000000 
S10	 0.216694	 0.146590	 0.000000 
Mo11	 0.138127	 0.225158	 0.500000 
Mo12	 0.231073	 0.200253	 0.500000 
S13	 0.191789	 0.239537	 1.000000 
S14	 0.191789	 0.239537	 0.000000 
S15	 0.098843	 0.264441	 1.000000 
S16	 0.098843	 0.264441	 0.000000 
Mo17	 0.020276	 0.343009	 0.500000 
Mo18	 0.113222	 0.318104	 0.500000 
S19	 0.073938	 0.357388	 1.000000 
S20	 0.073938	 0.357388	 0.000000 
Mo21	 0.441870	 0.057497	 0.500000 
Mo22	 0.534817	 0.032592	 0.500000 
S23	 0.495533	 0.071876	 1.000000 
S24	 0.495533	 0.071876	 0.000000 
S25	 0.402587	 0.096781	 1.000000 
S26	 0.402587	 0.096781	 0.000000 
Mo27	 0.324019	 0.175348	 0.500000 
Mo28	 0.416965	 0.150443	 0.500000 
S29	 0.377682	 0.189727	 1.000000 
S30	 0.377682	 0.189727	 0.000000 
S31	 0.284736	 0.214632	 1.000000 
S32	 0.284736	 0.214632	 0.000000 
Mo33	 0.206168	 0.293199	 0.500000 
Mo34	 0.299114	 0.268294	 0.500000 
S35	 0.259831	 0.307578	 1.000000 
S36	 0.259831	 0.307578	 0.000000 
S37	 0.166884	 0.332483	 1.000000 
S38	 0.166884	 0.332483	 0.000000 
Mo39	 0.088317	 0.411050	 0.500000 
Mo40	 0.181263	 0.386145	 0.500000 
S41	 0.141980	 0.425429	 1.000000 
S42	 0.141980	 0.425429	 0.000000 
S43	 0.049033	 0.450334	 1.000000 
S44	 0.049033	 0.450334	 0.000000 
Mo45	 0.063412	 0.503996	 0.500000 
S46	 0.024128	 0.543280	 1.000000 
S47	 0.024128	 0.543280	 0.000000 
S48	 0.588479	 0.046971	 1.000000 
S49	 0.588479	 0.046971	 0.000000 
Mo50	 0.509912	 0.125538	 0.500000 
Mo51	 0.602858	 0.100633	 0.500000 
S52	 0.563574	 0.139917	 1.000000 
S53	 0.563574	 0.139917	 0.000000 
S54	 0.470628	 0.164822	 1.000000 
S55	 0.470628	 0.164822	 0.000000 
Mo56	 0.392061	 0.243389	 0.500000 
Mo57	 0.485007	 0.218484	 0.500000 
S58	 0.445723	 0.257768	 1.000000 
S59	 0.445723	 0.257768	 0.000000 
S60	 0.352777	 0.282673	 1.000000 
S61	 0.352777	 0.282673	 0.000000 
Mo62	 0.274209	 0.361240	 0.500000 
Mo63	 0.367156	 0.336336	 0.500000 
S64	 0.327872	 0.375619	 1.000000 
S65	 0.327872	 0.375619	 0.000000 
S66	 0.234926	 0.400524	 1.000000 
S67	 0.234926	 0.400524	 0.000000 
Mo68	 0.156358	 0.479092	 0.500000 
Mo69	 0.249305	 0.454187	 0.500000 
S70	 0.210021	 0.493470	 1.000000 
S71	 0.210021	 0.493470	 0.000000 
S72	 0.117075	 0.518375	 1.000000 
S73	 0.117075	 0.518375	 0.000000 
Mo74	 0.038507	 0.596943	 0.500000 
Mo75	 0.131453	 0.572038	 0.500000 
S76	 0.092170	 0.611322	 1.000000 
S77	 0.092170	 0.611322	 0.000000 
Mo78	 0.627763	 0.007687	 0.500000 
Mo79	 0.013602	 0.689889	 0.500000 
S80	 0.681425	 0.022066	 1.000000 
S81	 0.681425	 0.022066	 0.000000 
S82	 0.656521	 0.115012	 1.000000 
S83	 0.656521	 0.115012	 0.000000 
Mo84	 0.577953	 0.193580	 0.500000 
Mo85	 0.670899	 0.168675	 0.500000 
S86	 0.631616	 0.207958	 1.000000 
S87	 0.631616	 0.207958	 0.000000 
S88	 0.538669	 0.232863	 1.000000 
S89	 0.538669	 0.232863	 0.000000 
Mo90	 0.460102	 0.311431	 0.500000 
Mo91	 0.553048	 0.286526	 0.500000 
S92	 0.513765	 0.325810	 1.000000 
S93	 0.513765	 0.325810	 0.000000 
S94	 0.420818	 0.350714	 1.000000 
S95	 0.420818	 0.350714	 0.000000 
Mo96	 0.342251	 0.429282	 0.500000 
Mo97	 0.435197	 0.404377	 0.500000 
S98	 0.395913	 0.443661	 1.000000 
S99	 0.395913	 0.443661	 0.000000 
S100	 0.302967	 0.468566	 1.000000 
S101	 0.302967	 0.468566	 0.000000 
Mo102	 0.224400	 0.547133	 0.500000 
Mo103	 0.317346	 0.522228	 0.500000 
S104	 0.278062	 0.561512	 1.000000 
S105	 0.278062	 0.561512	 0.000000 
S106	 0.185116	 0.586417	 1.000000 
S107	 0.185116	 0.586417	 0.000000 
Mo108	 0.106549	 0.664984	 0.500000 
Mo109	 0.199495	 0.640079	 0.500000 
S110	 0.160211	 0.679363	 1.000000 
S111	 0.160211	 0.679363	 0.000000 
S112	 0.067265	 0.704268	 1.000000 
S113	 0.067265	 0.704268	 0.000000 
Mo114	 0.695804	 0.075728	 0.500000 
Mo115	 0.081644	 0.757930	 0.500000 
S116	 0.749467	 0.090107	 1.000000 
S117	 0.749467	 0.090107	 0.000000 
S118	 0.724562	 0.183054	 1.000000 
S119	 0.724562	 0.183054	 0.000000 
Mo120	 0.645994	 0.261621	 0.500000 
Mo121	 0.738941	 0.236716	 0.500000 
S122	 0.699657	 0.276000	 1.000000 
S123	 0.699657	 0.276000	 0.000000 
S124	 0.606711	 0.300905	 1.000000 
S125	 0.606711	 0.300905	 0.000000 
Mo126	 0.528143	 0.379472	 0.500000 
Mo127	 0.621090	 0.354567	 0.500000 
S128	 0.581806	 0.393851	 1.000000 
S129	 0.581806	 0.393851	 0.000000 
S130	 0.488860	 0.418756	 1.000000 
S131	 0.488860	 0.418756	 0.000000 
Mo132	 0.410292	 0.497323	 0.500000 
Mo133	 0.503238	 0.472418	 0.500000 
S134	 0.463955	 0.511702	 1.000000 
S135	 0.463955	 0.511702	 0.000000 
S136	 0.371009	 0.536607	 1.000000 
S137	 0.371009	 0.536607	 0.000000 
Mo138	 0.292441	 0.615174	 0.500000 
Mo139	 0.385387	 0.590269	 0.500000 
S140	 0.346104	 0.629553	 1.000000 
S141	 0.346104	 0.629553	 0.000000 
S142	 0.253157	 0.654458	 1.000000 
S143	 0.253157	 0.654458	 0.000000 
Mo144	 0.174590	 0.733025	 0.500000 
Mo145	 0.267536	 0.708121	 0.500000 
S146	 0.228253	 0.747404	 1.000000 
S147	 0.228253	 0.747404	 0.000000 
S148	 0.135306	 0.772309	 1.000000 
S149	 0.135306	 0.772309	 0.000000 
Mo150	 0.763846	 0.143770	 0.500000 
Mo151	 0.149685	 0.825972	 0.500000 
S152	 0.817508	 0.158149	 1.000000 
S153	 0.817508	 0.158149	 0.000000 
S154	 0.792603	 0.251095	 1.000000 
S155	 0.792603	 0.251095	 0.000000 
Mo156	 0.714036	 0.329662	 0.500000 
Mo157	 0.806982	 0.304757	 0.500000 
S158	 0.767698	 0.344041	 1.000000 
S159	 0.767698	 0.344041	 0.000000 
S160	 0.674752	 0.368946	 1.000000 
S161	 0.674752	 0.368946	 0.000000 
Mo162	 0.596185	 0.447513	 0.500000 
Mo163	 0.689131	 0.422609	 0.500000 
S164	 0.649847	 0.461892	 1.000000 
S165	 0.649847	 0.461892	 0.000000 
S166	 0.556901	 0.486797	 1.000000 
S167	 0.556901	 0.486797	 0.000000 
Mo168	 0.478334	 0.565365	 0.500000 
Mo169	 0.571280	 0.540460	 0.500000 
S170	 0.531996	 0.579743	 1.000000 
S171	 0.531996	 0.579743	 0.000000 
S172	 0.439050	 0.604648	 1.000000 
S173	 0.439050	 0.604648	 0.000000 
Mo174	 0.360482	 0.683216	 0.500000 
Mo175	 0.453429	 0.658311	 0.500000 
S176	 0.414145	 0.697595	 1.000000 
S177	 0.414145	 0.697595	 0.000000 
S178	 0.321199	 0.722499	 1.000000 
S179	 0.321199	 0.722499	 0.000000 
Mo180	 0.242631	 0.801067	 0.500000 
Mo181	 0.335578	 0.776162	 0.500000 
S182	 0.296294	 0.815446	 1.000000 
S183	 0.296294	 0.815446	 0.000000 
S184	 0.203348	 0.840351	 1.000000 
S185	 0.203348	 0.840351	 0.000000 
Mo186	 0.831887	 0.211811	 0.500000 
Mo187	 0.217726	 0.894013	 0.500000 
S188	 0.885550	 0.226190	 1.000000 
S189	 0.885550	 0.226190	 0.000000 
S190	 0.860645	 0.319136	 1.000000 
S191	 0.860645	 0.319136	 0.000000 
Mo192	 0.782077	 0.397704	 0.500000 
Mo193	 0.875024	 0.372799	 0.500000 
S194	 0.835740	 0.412083	 1.000000 
S195	 0.835740	 0.412083	 0.000000 
S196	 0.742794	 0.436987	 1.000000 
S197	 0.742794	 0.436987	 0.000000 
Mo198	 0.664226	 0.515555	 0.500000 
Mo199	 0.757172	 0.490650	 0.500000 
S200	 0.717889	 0.529934	 1.000000 
S201	 0.717889	 0.529934	 0.000000 
S202	 0.624942	 0.554839	 1.000000 
S203	 0.624942	 0.554839	 0.000000 
Mo204	 0.546375	 0.633406	 0.500000 
Mo205	 0.639321	 0.608501	 0.500000 
S206	 0.600038	 0.647785	 1.000000 
S207	 0.600038	 0.647785	 0.000000 
S208	 0.507091	 0.672690	 1.000000 
S209	 0.507091	 0.672690	 0.000000 
Mo210	 0.428524	 0.751257	 0.500000 
Mo211	 0.521470	 0.726352	 0.500000 
S212	 0.482186	 0.765636	 1.000000 
S213	 0.482186	 0.765636	 0.000000 
S214	 0.389240	 0.790541	 1.000000 
S215	 0.389240	 0.790541	 0.000000 
Mo216	 0.310673	 0.869108	 0.500000 
Mo217	 0.403619	 0.844203	 0.500000 
S218	 0.364335	 0.883487	 1.000000 
S219	 0.364335	 0.883487	 0.000000 
S220	 0.271389	 0.908392	 1.000000 
S221	 0.271389	 0.908392	 0.000000 
Mo222	 0.899928	 0.279853	 0.500000 
Mo223	 0.285768	 0.962055	 0.500000 
S224	 0.953591	 0.294231	 1.000000 
S225	 0.953591	 0.294231	 0.000000 
S226	 0.928686	 0.387178	 1.000000 
S227	 0.928686	 0.387178	 0.000000 
Mo228	 0.850119	 0.465745	 0.500000 
Mo229	 0.943065	 0.440840	 0.500000 
S230	 0.903781	 0.480124	 1.000000 
S231	 0.903781	 0.480124	 0.000000 
S232	 0.810835	 0.505029	 1.000000 
S233	 0.810835	 0.505029	 0.000000 
Mo234	 0.732268	 0.583596	 0.500000 
Mo235	 0.825214	 0.558691	 0.500000 
S236	 0.785930	 0.597975	 1.000000 
S237	 0.785930	 0.597975	 0.000000 
S238	 0.692984	 0.622880	 1.000000 
S239	 0.692984	 0.622880	 0.000000 
Mo240	 0.614416	 0.701447	 0.500000 
Mo241	 0.707363	 0.676543	 0.500000 
S242	 0.668079	 0.715826	 1.000000 
S243	 0.668079	 0.715826	 0.000000 
S244	 0.575133	 0.740731	 1.000000 
S245	 0.575133	 0.740731	 0.000000 
Mo246	 0.496565	 0.819299	 0.500000 
Mo247	 0.589512	 0.794394	 0.500000 
S248	 0.550228	 0.833677	 1.000000 
S249	 0.550228	 0.833677	 0.000000 
S250	 0.457282	 0.858582	 1.000000 
S251	 0.457282	 0.858582	 0.000000 
Mo252	 0.378714	 0.937150	 0.500000 
Mo253	 0.471660	 0.912245	 0.500000 
S254	 0.432377	 0.951528	 1.000000 
S255	 0.432377	 0.951528	 0.000000 
S256	 0.339430	 0.976433	 1.000000 
S257	 0.339430	 0.976433	 0.000000 
Mo258	 0.967970	 0.347894	 0.500000 
S259	 0.996727	 0.455219	 1.000000 
S260	 0.996727	 0.455219	 0.000000 
Mo261	 0.918160	 0.533787	 0.500000 
S262	 0.971823	 0.548165	 1.000000 
S263	 0.971823	 0.548165	 0.000000 
S264	 0.878876	 0.573070	 1.000000 
S265	 0.878876	 0.573070	 0.000000 
Mo266	 0.800309	 0.651638	 0.500000 
Mo267	 0.893255	 0.626733	 0.500000 
S268	 0.853971	 0.666016	 1.000000 
S269	 0.853971	 0.666016	 0.000000 
S270	 0.761025	 0.690921	 1.000000 
S271	 0.761025	 0.690921	 0.000000 
Mo272	 0.682458	 0.769489	 0.500000 
Mo273	 0.775404	 0.744584	 0.500000 
S274	 0.736120	 0.783868	 1.000000 
S275	 0.736120	 0.783868	 0.000000 
S276	 0.643174	 0.808772	 1.000000 
S277	 0.643174	 0.808772	 0.000000 
Mo278	 0.564607	 0.887340	 0.500000 
Mo279	 0.657553	 0.862435	 0.500000 
S280	 0.618269	 0.901719	 1.000000 
S281	 0.618269	 0.901719	 0.000000 
S282	 0.525323	 0.926624	 1.000000 
S283	 0.525323	 0.926624	 0.000000 
Mo284	 0.539702	 0.980286	 0.500000 
Mo285	 0.986201	 0.601828	 0.500000 
S286	 0.946918	 0.641112	 1.000000 
S287	 0.946918	 0.641112	 0.000000 
Mo288	 0.868350	 0.719679	 0.500000 
Mo289	 0.961297	 0.694774	 0.500000 
S290	 0.922013	 0.734058	 1.000000 
S291	 0.922013	 0.734058	 0.000000 
S292	 0.829067	 0.758963	 1.000000 
S293	 0.829067	 0.758963	 0.000000 
Mo294	 0.750499	 0.837530	 0.500000 
Mo295	 0.843445	 0.812625	 0.500000 
S296	 0.804162	 0.851909	 1.000000 
S297	 0.804162	 0.851909	 0.000000 
S298	 0.711215	 0.876814	 1.000000 
S299	 0.711215	 0.876814	 0.000000 
Mo300	 0.632648	 0.955381	 0.500000 
Mo301	 0.725594	 0.930476	 0.500000 
S302	 0.686311	 0.969760	 1.000000 
S303	 0.686311	 0.969760	 0.000000 
S304	 0.593364	 0.994665	 1.000000 
S305	 0.593364	 0.994665	 0.000000 
#                 ---end-of-data-block---
