data_Single Layer of MoS2nx 10 ny 6 nz 1
_cell_length_a               32.423991
_cell_length_b               32.423991
_cell_length_c               3.080000
_cell_angle_alpha          90.000000
_cell_angle_beta           90.000000
_cell_angle_gamma          90.000000
_symmetry_cell_setting          Triclinic
_symmetry_space_group_name_H-M 'P 1' 
loop_
_atom_site_label
_atom_site_fract_x
_atom_site_fract_y
_atom_site_fract_z
S1	 0.294471	 0.037621	 1.000000 
S2	 0.294471	 0.037621	 0.000000 
Mo3	 0.238916	 0.133846	 0.500000 
Mo4	 0.322249	 0.085733	 0.500000 
S5	 0.294471	 0.133846	 1.000000 
S6	 0.294471	 0.133846	 0.000000 
S7	 0.211138	 0.181958	 1.000000 
S8	 0.211138	 0.181958	 0.000000 
Mo9	 0.155582	 0.278183	 0.500000 
Mo10	 0.238916	 0.230071	 0.500000 
S11	 0.211138	 0.278183	 1.000000 
S12	 0.211138	 0.278183	 0.000000 
S13	 0.127805	 0.326296	 1.000000 
S14	 0.127805	 0.326296	 0.000000 
Mo15	 0.072249	 0.422521	 0.500000 
Mo16	 0.155582	 0.374408	 0.500000 
S17	 0.127805	 0.422521	 1.000000 
S18	 0.127805	 0.422521	 0.000000 
S19	 0.044471	 0.470633	 1.000000 
S20	 0.044471	 0.470633	 0.000000 
Mo21	 0.072249	 0.518746	 0.500000 
S22	 0.044471	 0.566858	 1.000000 
S23	 0.044471	 0.566858	 0.000000 
Mo24	 0.405582	 0.037621	 0.500000 
S25	 0.461138	 0.037621	 1.000000 
S26	 0.461138	 0.037621	 0.000000 
S27	 0.377805	 0.085733	 1.000000 
S28	 0.377805	 0.085733	 0.000000 
Mo29	 0.322249	 0.181958	 0.500000 
Mo30	 0.405582	 0.133846	 0.500000 
S31	 0.377805	 0.181958	 1.000000 
S32	 0.377805	 0.181958	 0.000000 
S33	 0.294471	 0.230071	 1.000000 
S34	 0.294471	 0.230071	 0.000000 
Mo35	 0.238916	 0.326296	 0.500000 
Mo36	 0.322249	 0.278183	 0.500000 
S37	 0.294471	 0.326296	 1.000000 
S38	 0.294471	 0.326296	 0.000000 
S39	 0.211138	 0.374408	 1.000000 
S40	 0.211138	 0.374408	 0.000000 
Mo41	 0.155582	 0.470633	 0.500000 
Mo42	 0.238916	 0.422521	 0.500000 
S43	 0.211138	 0.470633	 1.000000 
S44	 0.211138	 0.470633	 0.000000 
S45	 0.127805	 0.518746	 1.000000 
S46	 0.127805	 0.518746	 0.000000 
Mo47	 0.072249	 0.614971	 0.500000 
Mo48	 0.155582	 0.566858	 0.500000 
S49	 0.127805	 0.614971	 1.000000 
S50	 0.127805	 0.614971	 0.000000 
S51	 0.044471	 0.663083	 1.000000 
S52	 0.044471	 0.663083	 0.000000 
Mo53	 0.072249	 0.711196	 0.500000 
S54	 0.044471	 0.759308	 1.000000 
S55	 0.044471	 0.759308	 0.000000 
Mo56	 0.488916	 0.085733	 0.500000 
Mo57	 0.572249	 0.037621	 0.500000 
S58	 0.544471	 0.085733	 1.000000 
S59	 0.544471	 0.085733	 0.000000 
S60	 0.461138	 0.133846	 1.000000 
S61	 0.461138	 0.133846	 0.000000 
Mo62	 0.405582	 0.230071	 0.500000 
Mo63	 0.488916	 0.181958	 0.500000 
S64	 0.461138	 0.230071	 1.000000 
S65	 0.461138	 0.230071	 0.000000 
S66	 0.377805	 0.278183	 1.000000 
S67	 0.377805	 0.278183	 0.000000 
Mo68	 0.322249	 0.374408	 0.500000 
Mo69	 0.405582	 0.326296	 0.500000 
S70	 0.377805	 0.374408	 1.000000 
S71	 0.377805	 0.374408	 0.000000 
S72	 0.294471	 0.422521	 1.000000 
S73	 0.294471	 0.422521	 0.000000 
Mo74	 0.238916	 0.518746	 0.500000 
Mo75	 0.322249	 0.470633	 0.500000 
S76	 0.294471	 0.518746	 1.000000 
S77	 0.294471	 0.518746	 0.000000 
S78	 0.211138	 0.566858	 1.000000 
S79	 0.211138	 0.566858	 0.000000 
Mo80	 0.155582	 0.663083	 0.500000 
Mo81	 0.238916	 0.614971	 0.500000 
S82	 0.211138	 0.663083	 1.000000 
S83	 0.211138	 0.663083	 0.000000 
S84	 0.127805	 0.711196	 1.000000 
S85	 0.127805	 0.711196	 0.000000 
Mo86	 0.072249	 0.807421	 0.500000 
Mo87	 0.155582	 0.759308	 0.500000 
S88	 0.127805	 0.807421	 1.000000 
S89	 0.127805	 0.807421	 0.000000 
S90	 0.627805	 0.037621	 1.000000 
S91	 0.627805	 0.037621	 0.000000 
Mo92	 0.572249	 0.133846	 0.500000 
Mo93	 0.655582	 0.085733	 0.500000 
S94	 0.627805	 0.133846	 1.000000 
S95	 0.627805	 0.133846	 0.000000 
S96	 0.544471	 0.181958	 1.000000 
S97	 0.544471	 0.181958	 0.000000 
Mo98	 0.488916	 0.278183	 0.500000 
Mo99	 0.572249	 0.230071	 0.500000 
S100	 0.544471	 0.278183	 1.000000 
S101	 0.544471	 0.278183	 0.000000 
S102	 0.461138	 0.326296	 1.000000 
S103	 0.461138	 0.326296	 0.000000 
Mo104	 0.405582	 0.422521	 0.500000 
Mo105	 0.488916	 0.374408	 0.500000 
S106	 0.461138	 0.422521	 1.000000 
S107	 0.461138	 0.422521	 0.000000 
S108	 0.377805	 0.470633	 1.000000 
S109	 0.377805	 0.470633	 0.000000 
Mo110	 0.322249	 0.566858	 0.500000 
Mo111	 0.405582	 0.518746	 0.500000 
S112	 0.377805	 0.566858	 1.000000 
S113	 0.377805	 0.566858	 0.000000 
S114	 0.294471	 0.614971	 1.000000 
S115	 0.294471	 0.614971	 0.000000 
Mo116	 0.238916	 0.711196	 0.500000 
Mo117	 0.322249	 0.663083	 0.500000 
S118	 0.294471	 0.711196	 1.000000 
S119	 0.294471	 0.711196	 0.000000 
S120	 0.211138	 0.759308	 1.000000 
S121	 0.211138	 0.759308	 0.000000 
Mo122	 0.155582	 0.855533	 0.500000 
Mo123	 0.238916	 0.807421	 0.500000 
S124	 0.211138	 0.855533	 1.000000 
S125	 0.211138	 0.855533	 0.000000 
S126	 0.711138	 0.085733	 1.000000 
S127	 0.711138	 0.085733	 0.000000 
Mo128	 0.655582	 0.181958	 0.500000 
Mo129	 0.738916	 0.133846	 0.500000 
S130	 0.711138	 0.181958	 1.000000 
S131	 0.711138	 0.181958	 0.000000 
S132	 0.627805	 0.230071	 1.000000 
S133	 0.627805	 0.230071	 0.000000 
Mo134	 0.572249	 0.326296	 0.500000 
Mo135	 0.655582	 0.278183	 0.500000 
S136	 0.627805	 0.326296	 1.000000 
S137	 0.627805	 0.326296	 0.000000 
S138	 0.544471	 0.374408	 1.000000 
S139	 0.544471	 0.374408	 0.000000 
Mo140	 0.488916	 0.470633	 0.500000 
Mo141	 0.572249	 0.422521	 0.500000 
S142	 0.544471	 0.470633	 1.000000 
S143	 0.544471	 0.470633	 0.000000 
S144	 0.461138	 0.518746	 1.000000 
S145	 0.461138	 0.518746	 0.000000 
Mo146	 0.405582	 0.614971	 0.500000 
Mo147	 0.488916	 0.566858	 0.500000 
S148	 0.461138	 0.614971	 1.000000 
S149	 0.461138	 0.614971	 0.000000 
S150	 0.377805	 0.663083	 1.000000 
S151	 0.377805	 0.663083	 0.000000 
Mo152	 0.322249	 0.759308	 0.500000 
Mo153	 0.405582	 0.711196	 0.500000 
S154	 0.377805	 0.759308	 1.000000 
S155	 0.377805	 0.759308	 0.000000 
S156	 0.294471	 0.807421	 1.000000 
S157	 0.294471	 0.807421	 0.000000 
Mo158	 0.238916	 0.903646	 0.500000 
Mo159	 0.322249	 0.855533	 0.500000 
S160	 0.294471	 0.903646	 1.000000 
S161	 0.294471	 0.903646	 0.000000 
S162	 0.794471	 0.133846	 1.000000 
S163	 0.794471	 0.133846	 0.000000 
Mo164	 0.738916	 0.230071	 0.500000 
Mo165	 0.822249	 0.181958	 0.500000 
S166	 0.794471	 0.230071	 1.000000 
S167	 0.794471	 0.230071	 0.000000 
S168	 0.711138	 0.278183	 1.000000 
S169	 0.711138	 0.278183	 0.000000 
Mo170	 0.655582	 0.374408	 0.500000 
Mo171	 0.738916	 0.326296	 0.500000 
S172	 0.711138	 0.374408	 1.000000 
S173	 0.711138	 0.374408	 0.000000 
S174	 0.627805	 0.422521	 1.000000 
S175	 0.627805	 0.422521	 0.000000 
Mo176	 0.572249	 0.518746	 0.500000 
Mo177	 0.655582	 0.470633	 0.500000 
S178	 0.627805	 0.518746	 1.000000 
S179	 0.627805	 0.518746	 0.000000 
S180	 0.544471	 0.566858	 1.000000 
S181	 0.544471	 0.566858	 0.000000 
Mo182	 0.488916	 0.663083	 0.500000 
Mo183	 0.572249	 0.614971	 0.500000 
S184	 0.544471	 0.663083	 1.000000 
S185	 0.544471	 0.663083	 0.000000 
S186	 0.461138	 0.711196	 1.000000 
S187	 0.461138	 0.711196	 0.000000 
Mo188	 0.405582	 0.807421	 0.500000 
Mo189	 0.488916	 0.759308	 0.500000 
S190	 0.461138	 0.807421	 1.000000 
S191	 0.461138	 0.807421	 0.000000 
S192	 0.377805	 0.855533	 1.000000 
S193	 0.377805	 0.855533	 0.000000 
Mo194	 0.322249	 0.951758	 0.500000 
Mo195	 0.405582	 0.903646	 0.500000 
S196	 0.377805	 0.951758	 1.000000 
S197	 0.377805	 0.951758	 0.000000 
S198	 0.877805	 0.181958	 1.000000 
S199	 0.877805	 0.181958	 0.000000 
Mo200	 0.822249	 0.278183	 0.500000 
Mo201	 0.905582	 0.230071	 0.500000 
S202	 0.877805	 0.278183	 1.000000 
S203	 0.877805	 0.278183	 0.000000 
S204	 0.794471	 0.326296	 1.000000 
S205	 0.794471	 0.326296	 0.000000 
Mo206	 0.738916	 0.422521	 0.500000 
Mo207	 0.822249	 0.374408	 0.500000 
S208	 0.794471	 0.422521	 1.000000 
S209	 0.794471	 0.422521	 0.000000 
S210	 0.711138	 0.470633	 1.000000 
S211	 0.711138	 0.470633	 0.000000 
Mo212	 0.655582	 0.566858	 0.500000 
Mo213	 0.738916	 0.518746	 0.500000 
S214	 0.711138	 0.566858	 1.000000 
S215	 0.711138	 0.566858	 0.000000 
S216	 0.627805	 0.614971	 1.000000 
S217	 0.627805	 0.614971	 0.000000 
Mo218	 0.572249	 0.711196	 0.500000 
Mo219	 0.655582	 0.663083	 0.500000 
S220	 0.627805	 0.711196	 1.000000 
S221	 0.627805	 0.711196	 0.000000 
S222	 0.544471	 0.759308	 1.000000 
S223	 0.544471	 0.759308	 0.000000 
Mo224	 0.488916	 0.855533	 0.500000 
Mo225	 0.572249	 0.807421	 0.500000 
S226	 0.544471	 0.855533	 1.000000 
S227	 0.544471	 0.855533	 0.000000 
S228	 0.461138	 0.903646	 1.000000 
S229	 0.461138	 0.903646	 0.000000 
Mo230	 0.405582	 0.999871	 0.500000 
Mo231	 0.488916	 0.951758	 0.500000 
S232	 0.461138	 0.999871	 1.000000 
S233	 0.461138	 0.999871	 0.000000 
S234	 0.961138	 0.230071	 1.000000 
S235	 0.961138	 0.230071	 0.000000 
Mo236	 0.905582	 0.326296	 0.500000 
Mo237	 0.988916	 0.278183	 0.500000 
S238	 0.961138	 0.326296	 1.000000 
S239	 0.961138	 0.326296	 0.000000 
S240	 0.877805	 0.374408	 1.000000 
S241	 0.877805	 0.374408	 0.000000 
Mo242	 0.822249	 0.470633	 0.500000 
Mo243	 0.905582	 0.422521	 0.500000 
S244	 0.877805	 0.470633	 1.000000 
S245	 0.877805	 0.470633	 0.000000 
S246	 0.794471	 0.518746	 1.000000 
S247	 0.794471	 0.518746	 0.000000 
Mo248	 0.738916	 0.614971	 0.500000 
Mo249	 0.822249	 0.566858	 0.500000 
S250	 0.794471	 0.614971	 1.000000 
S251	 0.794471	 0.614971	 0.000000 
S252	 0.711138	 0.663083	 1.000000 
S253	 0.711138	 0.663083	 0.000000 
Mo254	 0.655582	 0.759308	 0.500000 
Mo255	 0.738916	 0.711196	 0.500000 
S256	 0.711138	 0.759308	 1.000000 
S257	 0.711138	 0.759308	 0.000000 
S258	 0.627805	 0.807421	 1.000000 
S259	 0.627805	 0.807421	 0.000000 
Mo260	 0.572249	 0.903646	 0.500000 
Mo261	 0.655582	 0.855533	 0.500000 
S262	 0.627805	 0.903646	 1.000000 
S263	 0.627805	 0.903646	 0.000000 
S264	 0.544471	 0.951758	 1.000000 
S265	 0.544471	 0.951758	 0.000000 
Mo266	 0.572249	 0.999871	 0.500000 
Mo267	 0.988916	 0.374408	 0.500000 
S268	 0.961138	 0.422521	 1.000000 
S269	 0.961138	 0.422521	 0.000000 
Mo270	 0.905582	 0.518746	 0.500000 
Mo271	 0.988916	 0.470633	 0.500000 
S272	 0.961138	 0.518746	 1.000000 
S273	 0.961138	 0.518746	 0.000000 
S274	 0.877805	 0.566858	 1.000000 
S275	 0.877805	 0.566858	 0.000000 
Mo276	 0.822249	 0.663083	 0.500000 
Mo277	 0.905582	 0.614971	 0.500000 
S278	 0.877805	 0.663083	 1.000000 
S279	 0.877805	 0.663083	 0.000000 
S280	 0.794471	 0.711196	 1.000000 
S281	 0.794471	 0.711196	 0.000000 
Mo282	 0.738916	 0.807421	 0.500000 
Mo283	 0.822249	 0.759308	 0.500000 
S284	 0.794471	 0.807421	 1.000000 
S285	 0.794471	 0.807421	 0.000000 
S286	 0.711138	 0.855533	 1.000000 
S287	 0.711138	 0.855533	 0.000000 
Mo288	 0.655582	 0.951758	 0.500000 
Mo289	 0.738916	 0.903646	 0.500000 
S290	 0.711138	 0.951758	 1.000000 
S291	 0.711138	 0.951758	 0.000000 
S292	 0.627805	 0.999871	 1.000000 
S293	 0.627805	 0.999871	 0.000000 
Mo294	 0.988916	 0.566858	 0.500000 
Mo295	 0.238916	 0.037621	 0.500000 
S296	 0.211138	 0.085733	 1.000000 
S297	 0.211138	 0.085733	 0.000000 
S298	 0.961138	 0.614971	 1.000000 
S299	 0.961138	 0.614971	 0.000000 
Mo300	 0.905582	 0.711196	 0.500000 
Mo301	 0.155582	 0.181958	 0.500000 
S302	 0.127805	 0.230071	 1.000000 
S303	 0.127805	 0.230071	 0.000000 
S304	 0.877805	 0.759308	 1.000000 
S305	 0.877805	 0.759308	 0.000000 
Mo306	 0.822249	 0.855533	 0.500000 
Mo307	 0.072249	 0.326296	 0.500000 
S308	 0.044471	 0.374408	 1.000000 
S309	 0.044471	 0.374408	 0.000000 
S310	 0.794471	 0.903646	 1.000000 
S311	 0.794471	 0.903646	 0.000000 
Mo312	 0.738916	 0.999871	 0.500000 
#                 ---end-of-data-block---
