data_Single Layer of MoS2nx 10 ny 6 nz 1
_cell_length_a               32.423991
_cell_length_b               32.423991
_cell_length_c               3.080000
_cell_angle_alpha          90.000000
_cell_angle_beta           90.000000
_cell_angle_gamma          90.000000
_symmetry_cell_setting          Triclinic
_symmetry_space_group_name_H-M 'P 1' 
loop_
_atom_site_label
_atom_site_fract_x
_atom_site_fract_y
_atom_site_fract_z
S1	 0.450403	 0.004363	 1.000000 
S2	 0.450403	 0.004363	 0.000000 
Mo3	 0.371836	 0.082930	 0.500000 
Mo4	 0.464782	 0.058025	 0.500000 
S5	 0.425498	 0.097309	 1.000000 
S6	 0.425498	 0.097309	 0.000000 
S7	 0.332552	 0.122214	 1.000000 
S8	 0.332552	 0.122214	 0.000000 
Mo9	 0.253985	 0.200781	 0.500000 
Mo10	 0.346931	 0.175876	 0.500000 
S11	 0.307647	 0.215160	 1.000000 
S12	 0.307647	 0.215160	 0.000000 
S13	 0.214701	 0.240065	 1.000000 
S14	 0.214701	 0.240065	 0.000000 
Mo15	 0.136134	 0.318632	 0.500000 
Mo16	 0.229080	 0.293727	 0.500000 
S17	 0.189796	 0.333011	 1.000000 
S18	 0.189796	 0.333011	 0.000000 
S19	 0.096850	 0.357916	 1.000000 
S20	 0.096850	 0.357916	 0.000000 
Mo21	 0.018282	 0.436483	 0.500000 
Mo22	 0.111229	 0.411578	 0.500000 
S23	 0.071945	 0.450862	 1.000000 
S24	 0.071945	 0.450862	 0.000000 
Mo25	 0.557728	 0.033120	 0.500000 
Mo26	 0.650675	 0.008215	 0.500000 
S27	 0.611391	 0.047499	 1.000000 
S28	 0.611391	 0.047499	 0.000000 
S29	 0.518445	 0.072404	 1.000000 
S30	 0.518445	 0.072404	 0.000000 
Mo31	 0.439877	 0.150971	 0.500000 
Mo32	 0.532823	 0.126066	 0.500000 
S33	 0.493540	 0.165350	 1.000000 
S34	 0.493540	 0.165350	 0.000000 
S35	 0.400593	 0.190255	 1.000000 
S36	 0.400593	 0.190255	 0.000000 
Mo37	 0.322026	 0.268822	 0.500000 
Mo38	 0.414972	 0.243918	 0.500000 
S39	 0.375689	 0.283201	 1.000000 
S40	 0.375689	 0.283201	 0.000000 
S41	 0.282742	 0.308106	 1.000000 
S42	 0.282742	 0.308106	 0.000000 
Mo43	 0.204175	 0.386674	 0.500000 
Mo44	 0.297121	 0.361769	 0.500000 
S45	 0.257837	 0.401052	 1.000000 
S46	 0.257837	 0.401052	 0.000000 
S47	 0.164891	 0.425957	 1.000000 
S48	 0.164891	 0.425957	 0.000000 
Mo49	 0.086324	 0.504525	 0.500000 
Mo50	 0.179270	 0.479620	 0.500000 
S51	 0.139986	 0.518904	 1.000000 
S52	 0.139986	 0.518904	 0.000000 
S53	 0.047040	 0.543808	 1.000000 
S54	 0.047040	 0.543808	 0.000000 
Mo55	 0.061419	 0.597471	 0.500000 
S56	 0.022135	 0.636755	 1.000000 
S57	 0.022135	 0.636755	 0.000000 
S58	 0.704337	 0.022594	 1.000000 
S59	 0.704337	 0.022594	 0.000000 
Mo60	 0.625770	 0.101162	 0.500000 
Mo61	 0.718716	 0.076257	 0.500000 
S62	 0.679432	 0.115540	 1.000000 
S63	 0.679432	 0.115540	 0.000000 
S64	 0.586486	 0.140445	 1.000000 
S65	 0.586486	 0.140445	 0.000000 
Mo66	 0.507919	 0.219013	 0.500000 
Mo67	 0.600865	 0.194108	 0.500000 
S68	 0.561581	 0.233392	 1.000000 
S69	 0.561581	 0.233392	 0.000000 
S70	 0.468635	 0.258296	 1.000000 
S71	 0.468635	 0.258296	 0.000000 
Mo72	 0.390067	 0.336864	 0.500000 
Mo73	 0.483014	 0.311959	 0.500000 
S74	 0.443730	 0.351243	 1.000000 
S75	 0.443730	 0.351243	 0.000000 
S76	 0.350784	 0.376148	 1.000000 
S77	 0.350784	 0.376148	 0.000000 
Mo78	 0.272216	 0.454715	 0.500000 
Mo79	 0.365163	 0.429810	 0.500000 
S80	 0.325879	 0.469094	 1.000000 
S81	 0.325879	 0.469094	 0.000000 
S82	 0.232933	 0.493999	 1.000000 
S83	 0.232933	 0.493999	 0.000000 
Mo84	 0.154365	 0.572566	 0.500000 
Mo85	 0.247311	 0.547661	 0.500000 
S86	 0.208028	 0.586945	 1.000000 
S87	 0.208028	 0.586945	 0.000000 
S88	 0.115081	 0.611850	 1.000000 
S89	 0.115081	 0.611850	 0.000000 
Mo90	 0.036514	 0.690417	 0.500000 
Mo91	 0.129460	 0.665512	 0.500000 
S92	 0.090177	 0.704796	 1.000000 
S93	 0.090177	 0.704796	 0.000000 
S94	 0.772378	 0.090636	 1.000000 
S95	 0.772378	 0.090636	 0.000000 
Mo96	 0.693811	 0.169203	 0.500000 
Mo97	 0.786757	 0.144298	 0.500000 
S98	 0.747474	 0.183582	 1.000000 
S99	 0.747474	 0.183582	 0.000000 
S100	 0.654527	 0.208487	 1.000000 
S101	 0.654527	 0.208487	 0.000000 
Mo102	 0.575960	 0.287054	 0.500000 
Mo103	 0.668906	 0.262149	 0.500000 
S104	 0.629622	 0.301433	 1.000000 
S105	 0.629622	 0.301433	 0.000000 
S106	 0.536676	 0.326338	 1.000000 
S107	 0.536676	 0.326338	 0.000000 
Mo108	 0.458109	 0.404905	 0.500000 
Mo109	 0.551055	 0.380000	 0.500000 
S110	 0.511771	 0.419284	 1.000000 
S111	 0.511771	 0.419284	 0.000000 
S112	 0.418825	 0.444189	 1.000000 
S113	 0.418825	 0.444189	 0.000000 
Mo114	 0.340258	 0.522756	 0.500000 
Mo115	 0.433204	 0.497851	 0.500000 
S116	 0.393920	 0.537135	 1.000000 
S117	 0.393920	 0.537135	 0.000000 
S118	 0.300974	 0.562040	 1.000000 
S119	 0.300974	 0.562040	 0.000000 
Mo120	 0.222407	 0.640608	 0.500000 
Mo121	 0.315353	 0.615703	 0.500000 
S122	 0.276069	 0.654986	 1.000000 
S123	 0.276069	 0.654986	 0.000000 
S124	 0.183123	 0.679891	 1.000000 
S125	 0.183123	 0.679891	 0.000000 
Mo126	 0.104555	 0.758459	 0.500000 
Mo127	 0.197502	 0.733554	 0.500000 
S128	 0.158218	 0.772837	 1.000000 
S129	 0.158218	 0.772837	 0.000000 
S130	 0.840420	 0.158677	 1.000000 
S131	 0.840420	 0.158677	 0.000000 
Mo132	 0.761852	 0.237244	 0.500000 
Mo133	 0.854799	 0.212339	 0.500000 
S134	 0.815515	 0.251623	 1.000000 
S135	 0.815515	 0.251623	 0.000000 
S136	 0.722569	 0.276528	 1.000000 
S137	 0.722569	 0.276528	 0.000000 
Mo138	 0.644001	 0.355095	 0.500000 
Mo139	 0.736948	 0.330191	 0.500000 
S140	 0.697664	 0.369474	 1.000000 
S141	 0.697664	 0.369474	 0.000000 
S142	 0.604718	 0.394379	 1.000000 
S143	 0.604718	 0.394379	 0.000000 
Mo144	 0.526150	 0.472947	 0.500000 
Mo145	 0.619096	 0.448042	 0.500000 
S146	 0.579813	 0.487325	 1.000000 
S147	 0.579813	 0.487325	 0.000000 
S148	 0.486866	 0.512230	 1.000000 
S149	 0.486866	 0.512230	 0.000000 
Mo150	 0.408299	 0.590798	 0.500000 
Mo151	 0.501245	 0.565893	 0.500000 
S152	 0.461962	 0.605177	 1.000000 
S153	 0.461962	 0.605177	 0.000000 
S154	 0.369015	 0.630081	 1.000000 
S155	 0.369015	 0.630081	 0.000000 
Mo156	 0.290448	 0.708649	 0.500000 
Mo157	 0.383394	 0.683744	 0.500000 
S158	 0.344110	 0.723028	 1.000000 
S159	 0.344110	 0.723028	 0.000000 
S160	 0.251164	 0.747933	 1.000000 
S161	 0.251164	 0.747933	 0.000000 
Mo162	 0.172597	 0.826500	 0.500000 
Mo163	 0.265543	 0.801595	 0.500000 
S164	 0.226259	 0.840879	 1.000000 
S165	 0.226259	 0.840879	 0.000000 
S166	 0.908461	 0.226718	 1.000000 
S167	 0.908461	 0.226718	 0.000000 
Mo168	 0.829894	 0.305286	 0.500000 
Mo169	 0.922840	 0.280381	 0.500000 
S170	 0.883556	 0.319665	 1.000000 
S171	 0.883556	 0.319665	 0.000000 
S172	 0.790610	 0.344569	 1.000000 
S173	 0.790610	 0.344569	 0.000000 
Mo174	 0.712043	 0.423137	 0.500000 
Mo175	 0.804989	 0.398232	 0.500000 
S176	 0.765705	 0.437516	 1.000000 
S177	 0.765705	 0.437516	 0.000000 
S178	 0.672759	 0.462421	 1.000000 
S179	 0.672759	 0.462421	 0.000000 
Mo180	 0.594192	 0.540988	 0.500000 
Mo181	 0.687138	 0.516083	 0.500000 
S182	 0.647854	 0.555367	 1.000000 
S183	 0.647854	 0.555367	 0.000000 
S184	 0.554908	 0.580272	 1.000000 
S185	 0.554908	 0.580272	 0.000000 
Mo186	 0.476340	 0.658839	 0.500000 
Mo187	 0.569287	 0.633934	 0.500000 
S188	 0.530003	 0.673218	 1.000000 
S189	 0.530003	 0.673218	 0.000000 
S190	 0.437057	 0.698123	 1.000000 
S191	 0.437057	 0.698123	 0.000000 
Mo192	 0.358489	 0.776690	 0.500000 
Mo193	 0.451436	 0.751785	 0.500000 
S194	 0.412152	 0.791069	 1.000000 
S195	 0.412152	 0.791069	 0.000000 
S196	 0.319206	 0.815974	 1.000000 
S197	 0.319206	 0.815974	 0.000000 
Mo198	 0.240638	 0.894541	 0.500000 
Mo199	 0.333584	 0.869637	 0.500000 
S200	 0.294301	 0.908920	 1.000000 
S201	 0.294301	 0.908920	 0.000000 
S202	 0.976503	 0.294760	 1.000000 
S203	 0.976503	 0.294760	 0.000000 
Mo204	 0.897935	 0.373327	 0.500000 
Mo205	 0.990881	 0.348422	 0.500000 
S206	 0.951598	 0.387706	 1.000000 
S207	 0.951598	 0.387706	 0.000000 
S208	 0.858652	 0.412611	 1.000000 
S209	 0.858652	 0.412611	 0.000000 
Mo210	 0.780084	 0.491178	 0.500000 
Mo211	 0.873030	 0.466273	 0.500000 
S212	 0.833747	 0.505557	 1.000000 
S213	 0.833747	 0.505557	 0.000000 
S214	 0.740800	 0.530462	 1.000000 
S215	 0.740800	 0.530462	 0.000000 
Mo216	 0.662233	 0.609029	 0.500000 
Mo217	 0.755179	 0.584125	 0.500000 
S218	 0.715896	 0.623408	 1.000000 
S219	 0.715896	 0.623408	 0.000000 
S220	 0.622949	 0.648313	 1.000000 
S221	 0.622949	 0.648313	 0.000000 
Mo222	 0.544382	 0.726881	 0.500000 
Mo223	 0.637328	 0.701976	 0.500000 
S224	 0.598044	 0.741259	 1.000000 
S225	 0.598044	 0.741259	 0.000000 
S226	 0.505098	 0.766164	 1.000000 
S227	 0.505098	 0.766164	 0.000000 
Mo228	 0.426531	 0.844732	 0.500000 
Mo229	 0.519477	 0.819827	 0.500000 
S230	 0.480193	 0.859110	 1.000000 
S231	 0.480193	 0.859110	 0.000000 
S232	 0.387247	 0.884015	 1.000000 
S233	 0.387247	 0.884015	 0.000000 
Mo234	 0.308680	 0.962583	 0.500000 
Mo235	 0.401626	 0.937678	 0.500000 
S236	 0.362342	 0.976962	 1.000000 
S237	 0.362342	 0.976962	 0.000000 
Mo238	 0.965977	 0.441369	 0.500000 
S239	 0.926693	 0.480652	 1.000000 
S240	 0.926693	 0.480652	 0.000000 
Mo241	 0.848125	 0.559220	 0.500000 
Mo242	 0.941072	 0.534315	 0.500000 
S243	 0.901788	 0.573598	 1.000000 
S244	 0.901788	 0.573598	 0.000000 
S245	 0.808842	 0.598503	 1.000000 
S246	 0.808842	 0.598503	 0.000000 
Mo247	 0.730274	 0.677071	 0.500000 
Mo248	 0.823221	 0.652166	 0.500000 
S249	 0.783937	 0.691450	 1.000000 
S250	 0.783937	 0.691450	 0.000000 
S251	 0.690991	 0.716354	 1.000000 
S252	 0.690991	 0.716354	 0.000000 
Mo253	 0.612423	 0.794922	 0.500000 
Mo254	 0.705369	 0.770017	 0.500000 
S255	 0.666086	 0.809301	 1.000000 
S256	 0.666086	 0.809301	 0.000000 
S257	 0.573140	 0.834206	 1.000000 
S258	 0.573140	 0.834206	 0.000000 
Mo259	 0.494572	 0.912773	 0.500000 
Mo260	 0.587518	 0.887868	 0.500000 
S261	 0.548235	 0.927152	 1.000000 
S262	 0.548235	 0.927152	 0.000000 
S263	 0.455288	 0.952057	 1.000000 
S264	 0.455288	 0.952057	 0.000000 
S265	 0.994734	 0.548694	 1.000000 
S266	 0.994734	 0.548694	 0.000000 
Mo267	 0.916167	 0.627261	 0.500000 
S268	 0.969829	 0.641640	 1.000000 
S269	 0.969829	 0.641640	 0.000000 
S270	 0.876883	 0.666545	 1.000000 
S271	 0.876883	 0.666545	 0.000000 
Mo272	 0.798316	 0.745112	 0.500000 
Mo273	 0.891262	 0.720207	 0.500000 
S274	 0.851978	 0.759491	 1.000000 
S275	 0.851978	 0.759491	 0.000000 
S276	 0.759032	 0.784396	 1.000000 
S277	 0.759032	 0.784396	 0.000000 
Mo278	 0.680465	 0.862963	 0.500000 
Mo279	 0.773411	 0.838058	 0.500000 
S280	 0.734127	 0.877342	 1.000000 
S281	 0.734127	 0.877342	 0.000000 
S282	 0.641181	 0.902247	 1.000000 
S283	 0.641181	 0.902247	 0.000000 
Mo284	 0.562613	 0.980814	 0.500000 
Mo285	 0.655560	 0.955910	 0.500000 
S286	 0.616276	 0.995193	 1.000000 
S287	 0.616276	 0.995193	 0.000000 
Mo288	 0.984208	 0.695302	 0.500000 
S289	 0.357457	 0.029267	 1.000000 
S290	 0.357457	 0.029267	 0.000000 
S291	 0.944925	 0.734586	 1.000000 
S292	 0.944925	 0.734586	 0.000000 
Mo293	 0.866357	 0.813154	 0.500000 
Mo294	 0.278890	 0.107835	 0.500000 
S295	 0.239606	 0.147119	 1.000000 
S296	 0.239606	 0.147119	 0.000000 
S297	 0.827073	 0.852437	 1.000000 
S298	 0.827073	 0.852437	 0.000000 
Mo299	 0.748506	 0.931005	 0.500000 
Mo300	 0.161038	 0.225686	 0.500000 
S301	 0.121755	 0.264970	 1.000000 
S302	 0.121755	 0.264970	 0.000000 
S303	 0.709222	 0.970288	 1.000000 
S304	 0.709222	 0.970288	 0.000000 
Mo305	 0.043187	 0.343537	 0.500000 
S306	 0.003904	 0.382821	 1.000000 
S307	 0.003904	 0.382821	 0.000000 
#                 ---end-of-data-block---
