data_Single Layer of MoS2nx 10 ny 6 nz 1
_cell_length_a               32.423991
_cell_length_b               32.423991
_cell_length_c               3.080000
_cell_angle_alpha          90.000000
_cell_angle_beta           90.000000
_cell_angle_gamma          90.000000
_symmetry_cell_setting          Triclinic
_symmetry_space_group_name_H-M 'P 1' 
loop_
_atom_site_label
_atom_site_fract_x
_atom_site_fract_y
_atom_site_fract_z
Mo1	 0.255570	 0.069842	 0.500000 
Mo2	 0.348516	 0.044937	 0.500000 
S3	 0.309233	 0.084220	 1.000000 
S4	 0.309233	 0.084220	 0.000000 
S5	 0.216286	 0.109125	 1.000000 
S6	 0.216286	 0.109125	 0.000000 
Mo7	 0.137719	 0.187693	 0.500000 
Mo8	 0.230665	 0.162788	 0.500000 
S9	 0.191382	 0.202072	 1.000000 
S10	 0.191382	 0.202072	 0.000000 
S11	 0.098435	 0.226976	 1.000000 
S12	 0.098435	 0.226976	 0.000000 
Mo13	 0.019868	 0.305544	 0.500000 
Mo14	 0.112814	 0.280639	 0.500000 
S15	 0.073530	 0.319923	 1.000000 
S16	 0.073530	 0.319923	 0.000000 
Mo17	 0.441463	 0.020032	 0.500000 
S18	 0.495125	 0.034411	 1.000000 
S19	 0.495125	 0.034411	 0.000000 
S20	 0.402179	 0.059316	 1.000000 
S21	 0.402179	 0.059316	 0.000000 
Mo22	 0.323612	 0.137883	 0.500000 
Mo23	 0.416558	 0.112978	 0.500000 
S24	 0.377274	 0.152262	 1.000000 
S25	 0.377274	 0.152262	 0.000000 
S26	 0.284328	 0.177167	 1.000000 
S27	 0.284328	 0.177167	 0.000000 
Mo28	 0.205760	 0.255734	 0.500000 
Mo29	 0.298707	 0.230829	 0.500000 
S30	 0.259423	 0.270113	 1.000000 
S31	 0.259423	 0.270113	 0.000000 
S32	 0.166477	 0.295018	 1.000000 
S33	 0.166477	 0.295018	 0.000000 
Mo34	 0.087909	 0.373585	 0.500000 
Mo35	 0.180856	 0.348680	 0.500000 
S36	 0.141572	 0.387964	 1.000000 
S37	 0.141572	 0.387964	 0.000000 
S38	 0.048626	 0.412869	 1.000000 
S39	 0.048626	 0.412869	 0.000000 
Mo40	 0.063004	 0.466531	 0.500000 
S41	 0.023721	 0.505815	 1.000000 
S42	 0.023721	 0.505815	 0.000000 
S43	 0.588071	 0.009506	 1.000000 
S44	 0.588071	 0.009506	 0.000000 
Mo45	 0.509504	 0.088073	 0.500000 
Mo46	 0.602450	 0.063168	 0.500000 
S47	 0.563167	 0.102452	 1.000000 
S48	 0.563167	 0.102452	 0.000000 
S49	 0.470220	 0.127357	 1.000000 
S50	 0.470220	 0.127357	 0.000000 
Mo51	 0.391653	 0.205924	 0.500000 
Mo52	 0.484599	 0.181019	 0.500000 
S53	 0.445315	 0.220303	 1.000000 
S54	 0.445315	 0.220303	 0.000000 
S55	 0.352369	 0.245208	 1.000000 
S56	 0.352369	 0.245208	 0.000000 
Mo57	 0.273802	 0.323775	 0.500000 
Mo58	 0.366748	 0.298871	 0.500000 
S59	 0.327464	 0.338154	 1.000000 
S60	 0.327464	 0.338154	 0.000000 
S61	 0.234518	 0.363059	 1.000000 
S62	 0.234518	 0.363059	 0.000000 
Mo63	 0.155951	 0.441627	 0.500000 
Mo64	 0.248897	 0.416722	 0.500000 
S65	 0.209613	 0.456005	 1.000000 
S66	 0.209613	 0.456005	 0.000000 
S67	 0.116667	 0.480910	 1.000000 
S68	 0.116667	 0.480910	 0.000000 
Mo69	 0.038100	 0.559478	 0.500000 
Mo70	 0.131046	 0.534573	 0.500000 
S71	 0.091762	 0.573857	 1.000000 
S72	 0.091762	 0.573857	 0.000000 
Mo73	 0.013195	 0.652424	 0.500000 
S74	 0.656113	 0.077547	 1.000000 
S75	 0.656113	 0.077547	 0.000000 
Mo76	 0.577545	 0.156115	 0.500000 
Mo77	 0.670492	 0.131210	 0.500000 
S78	 0.631208	 0.170493	 1.000000 
S79	 0.631208	 0.170493	 0.000000 
S80	 0.538262	 0.195398	 1.000000 
S81	 0.538262	 0.195398	 0.000000 
Mo82	 0.459694	 0.273966	 0.500000 
Mo83	 0.552641	 0.249061	 0.500000 
S84	 0.513357	 0.288345	 1.000000 
S85	 0.513357	 0.288345	 0.000000 
S86	 0.420411	 0.313249	 1.000000 
S87	 0.420411	 0.313249	 0.000000 
Mo88	 0.341843	 0.391817	 0.500000 
Mo89	 0.434789	 0.366912	 0.500000 
S90	 0.395506	 0.406196	 1.000000 
S91	 0.395506	 0.406196	 0.000000 
S92	 0.302559	 0.431101	 1.000000 
S93	 0.302559	 0.431101	 0.000000 
Mo94	 0.223992	 0.509668	 0.500000 
Mo95	 0.316938	 0.484763	 0.500000 
S96	 0.277655	 0.524047	 1.000000 
S97	 0.277655	 0.524047	 0.000000 
S98	 0.184708	 0.548952	 1.000000 
S99	 0.184708	 0.548952	 0.000000 
Mo100	 0.106141	 0.627519	 0.500000 
Mo101	 0.199087	 0.602614	 0.500000 
S102	 0.159803	 0.641898	 1.000000 
S103	 0.159803	 0.641898	 0.000000 
S104	 0.066857	 0.666803	 1.000000 
S105	 0.066857	 0.666803	 0.000000 
Mo106	 0.695397	 0.038263	 0.500000 
Mo107	 0.081236	 0.720465	 0.500000 
S108	 0.749059	 0.052642	 1.000000 
S109	 0.749059	 0.052642	 0.000000 
S110	 0.724154	 0.145589	 1.000000 
S111	 0.724154	 0.145589	 0.000000 
Mo112	 0.645587	 0.224156	 0.500000 
Mo113	 0.738533	 0.199251	 0.500000 
S114	 0.699249	 0.238535	 1.000000 
S115	 0.699249	 0.238535	 0.000000 
S116	 0.606303	 0.263440	 1.000000 
S117	 0.606303	 0.263440	 0.000000 
Mo118	 0.527736	 0.342007	 0.500000 
Mo119	 0.620682	 0.317102	 0.500000 
S120	 0.581398	 0.356386	 1.000000 
S121	 0.581398	 0.356386	 0.000000 
S122	 0.488452	 0.381291	 1.000000 
S123	 0.488452	 0.381291	 0.000000 
Mo124	 0.409885	 0.459858	 0.500000 
Mo125	 0.502831	 0.434953	 0.500000 
S126	 0.463547	 0.474237	 1.000000 
S127	 0.463547	 0.474237	 0.000000 
S128	 0.370601	 0.499142	 1.000000 
S129	 0.370601	 0.499142	 0.000000 
Mo130	 0.292033	 0.577709	 0.500000 
Mo131	 0.384980	 0.552805	 0.500000 
S132	 0.345696	 0.592088	 1.000000 
S133	 0.345696	 0.592088	 0.000000 
S134	 0.252750	 0.616993	 1.000000 
S135	 0.252750	 0.616993	 0.000000 
Mo136	 0.174182	 0.695561	 0.500000 
Mo137	 0.267129	 0.670656	 0.500000 
S138	 0.227845	 0.709939	 1.000000 
S139	 0.227845	 0.709939	 0.000000 
S140	 0.134899	 0.734844	 1.000000 
S141	 0.134899	 0.734844	 0.000000 
Mo142	 0.763438	 0.106305	 0.500000 
Mo143	 0.149277	 0.788507	 0.500000 
S144	 0.817101	 0.120684	 1.000000 
S145	 0.817101	 0.120684	 0.000000 
S146	 0.792196	 0.213630	 1.000000 
S147	 0.792196	 0.213630	 0.000000 
Mo148	 0.713628	 0.292197	 0.500000 
Mo149	 0.806574	 0.267293	 0.500000 
S150	 0.767291	 0.306576	 1.000000 
S151	 0.767291	 0.306576	 0.000000 
S152	 0.674345	 0.331481	 1.000000 
S153	 0.674345	 0.331481	 0.000000 
Mo154	 0.595777	 0.410049	 0.500000 
Mo155	 0.688723	 0.385144	 0.500000 
S156	 0.649440	 0.424427	 1.000000 
S157	 0.649440	 0.424427	 0.000000 
S158	 0.556493	 0.449332	 1.000000 
S159	 0.556493	 0.449332	 0.000000 
Mo160	 0.477926	 0.527900	 0.500000 
Mo161	 0.570872	 0.502995	 0.500000 
S162	 0.531589	 0.542278	 1.000000 
S163	 0.531589	 0.542278	 0.000000 
S164	 0.438642	 0.567183	 1.000000 
S165	 0.438642	 0.567183	 0.000000 
Mo166	 0.360075	 0.645751	 0.500000 
Mo167	 0.453021	 0.620846	 0.500000 
S168	 0.413737	 0.660130	 1.000000 
S169	 0.413737	 0.660130	 0.000000 
S170	 0.320791	 0.685034	 1.000000 
S171	 0.320791	 0.685034	 0.000000 
Mo172	 0.242224	 0.763602	 0.500000 
Mo173	 0.335170	 0.738697	 0.500000 
S174	 0.295886	 0.777981	 1.000000 
S175	 0.295886	 0.777981	 0.000000 
S176	 0.202940	 0.802886	 1.000000 
S177	 0.202940	 0.802886	 0.000000 
Mo178	 0.831479	 0.174346	 0.500000 
Mo179	 0.217319	 0.856548	 0.500000 
S180	 0.885142	 0.188725	 1.000000 
S181	 0.885142	 0.188725	 0.000000 
S182	 0.860237	 0.281671	 1.000000 
S183	 0.860237	 0.281671	 0.000000 
Mo184	 0.781670	 0.360239	 0.500000 
Mo185	 0.874616	 0.335334	 0.500000 
S186	 0.835332	 0.374618	 1.000000 
S187	 0.835332	 0.374618	 0.000000 
S188	 0.742386	 0.399522	 1.000000 
S189	 0.742386	 0.399522	 0.000000 
Mo190	 0.663818	 0.478090	 0.500000 
Mo191	 0.756765	 0.453185	 0.500000 
S192	 0.717481	 0.492469	 1.000000 
S193	 0.717481	 0.492469	 0.000000 
S194	 0.624535	 0.517374	 1.000000 
S195	 0.624535	 0.517374	 0.000000 
Mo196	 0.545967	 0.595941	 0.500000 
Mo197	 0.638914	 0.571036	 0.500000 
S198	 0.599630	 0.610320	 1.000000 
S199	 0.599630	 0.610320	 0.000000 
S200	 0.506684	 0.635225	 1.000000 
S201	 0.506684	 0.635225	 0.000000 
Mo202	 0.428116	 0.713792	 0.500000 
Mo203	 0.521062	 0.688887	 0.500000 
S204	 0.481779	 0.728171	 1.000000 
S205	 0.481779	 0.728171	 0.000000 
S206	 0.388832	 0.753076	 1.000000 
S207	 0.388832	 0.753076	 0.000000 
Mo208	 0.310265	 0.831643	 0.500000 
Mo209	 0.403211	 0.806738	 0.500000 
S210	 0.363928	 0.846022	 1.000000 
S211	 0.363928	 0.846022	 0.000000 
S212	 0.270981	 0.870927	 1.000000 
S213	 0.270981	 0.870927	 0.000000 
Mo214	 0.899521	 0.242388	 0.500000 
Mo215	 0.285360	 0.924590	 0.500000 
S216	 0.953183	 0.256766	 1.000000 
S217	 0.953183	 0.256766	 0.000000 
S218	 0.928278	 0.349713	 1.000000 
S219	 0.928278	 0.349713	 0.000000 
Mo220	 0.849711	 0.428280	 0.500000 
Mo221	 0.942657	 0.403375	 0.500000 
S222	 0.903374	 0.442659	 1.000000 
S223	 0.903374	 0.442659	 0.000000 
S224	 0.810427	 0.467564	 1.000000 
S225	 0.810427	 0.467564	 0.000000 
Mo226	 0.731860	 0.546131	 0.500000 
Mo227	 0.824806	 0.521226	 0.500000 
S228	 0.785522	 0.560510	 1.000000 
S229	 0.785522	 0.560510	 0.000000 
S230	 0.692576	 0.585415	 1.000000 
S231	 0.692576	 0.585415	 0.000000 
Mo232	 0.614009	 0.663982	 0.500000 
Mo233	 0.706955	 0.639078	 0.500000 
S234	 0.667671	 0.678361	 1.000000 
S235	 0.667671	 0.678361	 0.000000 
S236	 0.574725	 0.703266	 1.000000 
S237	 0.574725	 0.703266	 0.000000 
Mo238	 0.496158	 0.781834	 0.500000 
Mo239	 0.589104	 0.756929	 0.500000 
S240	 0.549820	 0.796212	 1.000000 
S241	 0.549820	 0.796212	 0.000000 
S242	 0.456874	 0.821117	 1.000000 
S243	 0.456874	 0.821117	 0.000000 
Mo244	 0.378306	 0.899685	 0.500000 
Mo245	 0.471253	 0.874780	 0.500000 
S246	 0.431969	 0.914063	 1.000000 
S247	 0.431969	 0.914063	 0.000000 
S248	 0.339023	 0.938968	 1.000000 
S249	 0.339023	 0.938968	 0.000000 
Mo250	 0.967562	 0.310429	 0.500000 
Mo251	 0.353402	 0.992631	 0.500000 
S252	 0.996320	 0.417754	 1.000000 
S253	 0.996320	 0.417754	 0.000000 
Mo254	 0.917752	 0.496322	 0.500000 
S255	 0.971415	 0.510700	 1.000000 
S256	 0.971415	 0.510700	 0.000000 
S257	 0.878469	 0.535605	 1.000000 
S258	 0.878469	 0.535605	 0.000000 
Mo259	 0.799901	 0.614173	 0.500000 
Mo260	 0.892847	 0.589268	 0.500000 
S261	 0.853564	 0.628551	 1.000000 
S262	 0.853564	 0.628551	 0.000000 
S263	 0.760618	 0.653456	 1.000000 
S264	 0.760618	 0.653456	 0.000000 
Mo265	 0.682050	 0.732024	 0.500000 
Mo266	 0.774996	 0.707119	 0.500000 
S267	 0.735713	 0.746403	 1.000000 
S268	 0.735713	 0.746403	 0.000000 
S269	 0.642766	 0.771307	 1.000000 
S270	 0.642766	 0.771307	 0.000000 
Mo271	 0.564199	 0.849875	 0.500000 
Mo272	 0.657145	 0.824970	 0.500000 
S273	 0.617862	 0.864254	 1.000000 
S274	 0.617862	 0.864254	 0.000000 
S275	 0.524915	 0.889159	 1.000000 
S276	 0.524915	 0.889159	 0.000000 
Mo277	 0.446348	 0.967726	 0.500000 
Mo278	 0.539294	 0.942821	 0.500000 
S279	 0.500010	 0.982105	 1.000000 
S280	 0.500010	 0.982105	 0.000000 
Mo281	 0.985794	 0.564363	 0.500000 
S282	 0.946510	 0.603647	 1.000000 
S283	 0.946510	 0.603647	 0.000000 
Mo284	 0.867943	 0.682214	 0.500000 
Mo285	 0.960889	 0.657309	 0.500000 
S286	 0.921605	 0.696593	 1.000000 
S287	 0.921605	 0.696593	 0.000000 
S288	 0.828659	 0.721498	 1.000000 
S289	 0.828659	 0.721498	 0.000000 
Mo290	 0.750091	 0.800065	 0.500000 
Mo291	 0.843038	 0.775160	 0.500000 
S292	 0.803754	 0.814444	 1.000000 
S293	 0.803754	 0.814444	 0.000000 
S294	 0.710808	 0.839349	 1.000000 
S295	 0.710808	 0.839349	 0.000000 
Mo296	 0.632240	 0.917916	 0.500000 
Mo297	 0.725187	 0.893011	 0.500000 
S298	 0.685903	 0.932295	 1.000000 
S299	 0.685903	 0.932295	 0.000000 
S300	 0.592957	 0.957200	 1.000000 
S301	 0.592957	 0.957200	 0.000000 
#                 ---end-of-data-block---
