data_Single Layer of MoS2nx 10 ny 6 nz 1
_cell_length_a               32.423991
_cell_length_b               32.423991
_cell_length_c               3.080000
_cell_angle_alpha          90.000000
_cell_angle_beta           90.000000
_cell_angle_gamma          90.000000
_symmetry_cell_setting          Triclinic
_symmetry_space_group_name_H-M 'P 1' 
loop_
_atom_site_label
_atom_site_fract_x
_atom_site_fract_y
_atom_site_fract_z
Mo1	 0.330593	 0.055333	 0.500000 
Mo2	 0.423539	 0.030428	 0.500000 
S3	 0.384255	 0.069712	 1.000000 
S4	 0.384255	 0.069712	 0.000000 
S5	 0.291309	 0.094617	 1.000000 
S6	 0.291309	 0.094617	 0.000000 
Mo7	 0.212742	 0.173184	 0.500000 
Mo8	 0.305688	 0.148279	 0.500000 
S9	 0.266404	 0.187563	 1.000000 
S10	 0.266404	 0.187563	 0.000000 
S11	 0.173458	 0.212468	 1.000000 
S12	 0.173458	 0.212468	 0.000000 
Mo13	 0.094890	 0.291035	 0.500000 
Mo14	 0.187837	 0.266130	 0.500000 
S15	 0.148553	 0.305414	 1.000000 
S16	 0.148553	 0.305414	 0.000000 
S17	 0.055607	 0.330319	 1.000000 
S18	 0.055607	 0.330319	 0.000000 
Mo19	 0.069986	 0.383982	 0.500000 
S20	 0.030702	 0.423265	 1.000000 
S21	 0.030702	 0.423265	 0.000000 
Mo22	 0.516485	 0.005523	 0.500000 
S23	 0.570148	 0.019902	 1.000000 
S24	 0.570148	 0.019902	 0.000000 
S25	 0.477202	 0.044807	 1.000000 
S26	 0.477202	 0.044807	 0.000000 
Mo27	 0.398634	 0.123374	 0.500000 
Mo28	 0.491580	 0.098470	 0.500000 
S29	 0.452297	 0.137753	 1.000000 
S30	 0.452297	 0.137753	 0.000000 
S31	 0.359350	 0.162658	 1.000000 
S32	 0.359350	 0.162658	 0.000000 
Mo33	 0.280783	 0.241226	 0.500000 
Mo34	 0.373729	 0.216321	 0.500000 
S35	 0.334446	 0.255604	 1.000000 
S36	 0.334446	 0.255604	 0.000000 
S37	 0.241499	 0.280509	 1.000000 
S38	 0.241499	 0.280509	 0.000000 
Mo39	 0.162932	 0.359077	 0.500000 
Mo40	 0.255878	 0.334172	 0.500000 
S41	 0.216594	 0.373456	 1.000000 
S42	 0.216594	 0.373456	 0.000000 
S43	 0.123648	 0.398360	 1.000000 
S44	 0.123648	 0.398360	 0.000000 
Mo45	 0.045081	 0.476928	 0.500000 
Mo46	 0.138027	 0.452023	 0.500000 
S47	 0.098743	 0.491307	 1.000000 
S48	 0.098743	 0.491307	 0.000000 
S49	 0.005797	 0.516212	 1.000000 
S50	 0.005797	 0.516212	 0.000000 
Mo51	 0.020176	 0.569874	 0.500000 
Mo52	 0.584527	 0.073565	 0.500000 
Mo53	 0.677473	 0.048660	 0.500000 
S54	 0.638189	 0.087944	 1.000000 
S55	 0.638189	 0.087944	 0.000000 
S56	 0.545243	 0.112848	 1.000000 
S57	 0.545243	 0.112848	 0.000000 
Mo58	 0.466676	 0.191416	 0.500000 
Mo59	 0.559622	 0.166511	 0.500000 
S60	 0.520338	 0.205795	 1.000000 
S61	 0.520338	 0.205795	 0.000000 
S62	 0.427392	 0.230700	 1.000000 
S63	 0.427392	 0.230700	 0.000000 
Mo64	 0.348824	 0.309267	 0.500000 
Mo65	 0.441771	 0.284362	 0.500000 
S66	 0.402487	 0.323646	 1.000000 
S67	 0.402487	 0.323646	 0.000000 
S68	 0.309541	 0.348551	 1.000000 
S69	 0.309541	 0.348551	 0.000000 
Mo70	 0.230973	 0.427118	 0.500000 
Mo71	 0.323920	 0.402213	 0.500000 
S72	 0.284636	 0.441497	 1.000000 
S73	 0.284636	 0.441497	 0.000000 
S74	 0.191690	 0.466402	 1.000000 
S75	 0.191690	 0.466402	 0.000000 
Mo76	 0.113122	 0.544969	 0.500000 
Mo77	 0.206068	 0.520064	 0.500000 
S78	 0.166785	 0.559348	 1.000000 
S79	 0.166785	 0.559348	 0.000000 
S80	 0.073838	 0.584253	 1.000000 
S81	 0.073838	 0.584253	 0.000000 
Mo82	 0.088217	 0.637915	 0.500000 
S83	 0.048934	 0.677199	 1.000000 
S84	 0.048934	 0.677199	 0.000000 
S85	 0.731135	 0.063039	 1.000000 
S86	 0.731135	 0.063039	 0.000000 
Mo87	 0.652568	 0.141606	 0.500000 
Mo88	 0.745514	 0.116701	 0.500000 
S89	 0.706231	 0.155985	 1.000000 
S90	 0.706231	 0.155985	 0.000000 
S91	 0.613284	 0.180890	 1.000000 
S92	 0.613284	 0.180890	 0.000000 
Mo93	 0.534717	 0.259457	 0.500000 
Mo94	 0.627663	 0.234552	 0.500000 
S95	 0.588379	 0.273836	 1.000000 
S96	 0.588379	 0.273836	 0.000000 
S97	 0.495433	 0.298741	 1.000000 
S98	 0.495433	 0.298741	 0.000000 
Mo99	 0.416866	 0.377308	 0.500000 
Mo100	 0.509812	 0.352403	 0.500000 
S101	 0.470528	 0.391687	 1.000000 
S102	 0.470528	 0.391687	 0.000000 
S103	 0.377582	 0.416592	 1.000000 
S104	 0.377582	 0.416592	 0.000000 
Mo105	 0.299015	 0.495159	 0.500000 
Mo106	 0.391961	 0.470255	 0.500000 
S107	 0.352677	 0.509538	 1.000000 
S108	 0.352677	 0.509538	 0.000000 
S109	 0.259731	 0.534443	 1.000000 
S110	 0.259731	 0.534443	 0.000000 
Mo111	 0.181164	 0.613011	 0.500000 
Mo112	 0.274110	 0.588106	 0.500000 
S113	 0.234826	 0.627389	 1.000000 
S114	 0.234826	 0.627389	 0.000000 
S115	 0.141880	 0.652294	 1.000000 
S116	 0.141880	 0.652294	 0.000000 
Mo117	 0.063312	 0.730862	 0.500000 
Mo118	 0.156259	 0.705957	 0.500000 
S119	 0.116975	 0.745241	 1.000000 
S120	 0.116975	 0.745241	 0.000000 
S121	 0.799177	 0.131080	 1.000000 
S122	 0.799177	 0.131080	 0.000000 
Mo123	 0.720609	 0.209647	 0.500000 
Mo124	 0.813556	 0.184743	 0.500000 
S125	 0.774272	 0.224026	 1.000000 
S126	 0.774272	 0.224026	 0.000000 
S127	 0.681326	 0.248931	 1.000000 
S128	 0.681326	 0.248931	 0.000000 
Mo129	 0.602758	 0.327499	 0.500000 
Mo130	 0.695705	 0.302594	 0.500000 
S131	 0.656421	 0.341877	 1.000000 
S132	 0.656421	 0.341877	 0.000000 
S133	 0.563475	 0.366782	 1.000000 
S134	 0.563475	 0.366782	 0.000000 
Mo135	 0.484907	 0.445350	 0.500000 
Mo136	 0.577853	 0.420445	 0.500000 
S137	 0.538570	 0.459729	 1.000000 
S138	 0.538570	 0.459729	 0.000000 
S139	 0.445623	 0.484633	 1.000000 
S140	 0.445623	 0.484633	 0.000000 
Mo141	 0.367056	 0.563201	 0.500000 
Mo142	 0.460002	 0.538296	 0.500000 
S143	 0.420719	 0.577580	 1.000000 
S144	 0.420719	 0.577580	 0.000000 
S145	 0.327772	 0.602485	 1.000000 
S146	 0.327772	 0.602485	 0.000000 
Mo147	 0.249205	 0.681052	 0.500000 
Mo148	 0.342151	 0.656147	 0.500000 
S149	 0.302867	 0.695431	 1.000000 
S150	 0.302867	 0.695431	 0.000000 
S151	 0.209921	 0.720336	 1.000000 
S152	 0.209921	 0.720336	 0.000000 
Mo153	 0.131354	 0.798903	 0.500000 
Mo154	 0.224300	 0.773998	 0.500000 
S155	 0.185016	 0.813282	 1.000000 
S156	 0.185016	 0.813282	 0.000000 
S157	 0.867218	 0.199121	 1.000000 
S158	 0.867218	 0.199121	 0.000000 
Mo159	 0.788651	 0.277689	 0.500000 
Mo160	 0.881597	 0.252784	 0.500000 
S161	 0.842313	 0.292068	 1.000000 
S162	 0.842313	 0.292068	 0.000000 
S163	 0.749367	 0.316973	 1.000000 
S164	 0.749367	 0.316973	 0.000000 
Mo165	 0.670800	 0.395540	 0.500000 
Mo166	 0.763746	 0.370635	 0.500000 
S167	 0.724462	 0.409919	 1.000000 
S168	 0.724462	 0.409919	 0.000000 
S169	 0.631516	 0.434824	 1.000000 
S170	 0.631516	 0.434824	 0.000000 
Mo171	 0.552949	 0.513391	 0.500000 
Mo172	 0.645895	 0.488486	 0.500000 
S173	 0.606611	 0.527770	 1.000000 
S174	 0.606611	 0.527770	 0.000000 
S175	 0.513665	 0.552675	 1.000000 
S176	 0.513665	 0.552675	 0.000000 
Mo177	 0.435097	 0.631242	 0.500000 
Mo178	 0.528044	 0.606337	 0.500000 
S179	 0.488760	 0.645621	 1.000000 
S180	 0.488760	 0.645621	 0.000000 
S181	 0.395814	 0.670526	 1.000000 
S182	 0.395814	 0.670526	 0.000000 
Mo183	 0.317246	 0.749093	 0.500000 
Mo184	 0.410193	 0.724188	 0.500000 
S185	 0.370909	 0.763472	 1.000000 
S186	 0.370909	 0.763472	 0.000000 
S187	 0.277963	 0.788377	 1.000000 
S188	 0.277963	 0.788377	 0.000000 
Mo189	 0.199395	 0.866944	 0.500000 
Mo190	 0.292341	 0.842040	 0.500000 
S191	 0.253058	 0.881323	 1.000000 
S192	 0.253058	 0.881323	 0.000000 
S193	 0.935260	 0.267163	 1.000000 
S194	 0.935260	 0.267163	 0.000000 
Mo195	 0.856692	 0.345730	 0.500000 
Mo196	 0.949638	 0.320825	 0.500000 
S197	 0.910355	 0.360109	 1.000000 
S198	 0.910355	 0.360109	 0.000000 
S199	 0.817408	 0.385014	 1.000000 
S200	 0.817408	 0.385014	 0.000000 
Mo201	 0.738841	 0.463581	 0.500000 
Mo202	 0.831787	 0.438676	 0.500000 
S203	 0.792504	 0.477960	 1.000000 
S204	 0.792504	 0.477960	 0.000000 
S205	 0.699557	 0.502865	 1.000000 
S206	 0.699557	 0.502865	 0.000000 
Mo207	 0.620990	 0.581432	 0.500000 
Mo208	 0.713936	 0.556528	 0.500000 
S209	 0.674652	 0.595811	 1.000000 
S210	 0.674652	 0.595811	 0.000000 
S211	 0.581706	 0.620716	 1.000000 
S212	 0.581706	 0.620716	 0.000000 
Mo213	 0.503139	 0.699284	 0.500000 
Mo214	 0.596085	 0.674379	 0.500000 
S215	 0.556801	 0.713662	 1.000000 
S216	 0.556801	 0.713662	 0.000000 
S217	 0.463855	 0.738567	 1.000000 
S218	 0.463855	 0.738567	 0.000000 
Mo219	 0.385288	 0.817135	 0.500000 
Mo220	 0.478234	 0.792230	 0.500000 
S221	 0.438950	 0.831514	 1.000000 
S222	 0.438950	 0.831514	 0.000000 
S223	 0.346004	 0.856418	 1.000000 
S224	 0.346004	 0.856418	 0.000000 
Mo225	 0.267437	 0.934986	 0.500000 
Mo226	 0.360383	 0.910081	 0.500000 
S227	 0.321099	 0.949365	 1.000000 
S228	 0.321099	 0.949365	 0.000000 
Mo229	 0.924734	 0.413772	 0.500000 
S230	 0.978396	 0.428150	 1.000000 
S231	 0.978396	 0.428150	 0.000000 
S232	 0.885450	 0.453055	 1.000000 
S233	 0.885450	 0.453055	 0.000000 
Mo234	 0.806882	 0.531623	 0.500000 
Mo235	 0.899829	 0.506718	 0.500000 
S236	 0.860545	 0.546002	 1.000000 
S237	 0.860545	 0.546002	 0.000000 
S238	 0.767599	 0.570906	 1.000000 
S239	 0.767599	 0.570906	 0.000000 
Mo240	 0.689031	 0.649474	 0.500000 
Mo241	 0.781978	 0.624569	 0.500000 
S242	 0.742694	 0.663853	 1.000000 
S243	 0.742694	 0.663853	 0.000000 
S244	 0.649748	 0.688758	 1.000000 
S245	 0.649748	 0.688758	 0.000000 
Mo246	 0.571180	 0.767325	 0.500000 
Mo247	 0.664126	 0.742420	 0.500000 
S248	 0.624843	 0.781704	 1.000000 
S249	 0.624843	 0.781704	 0.000000 
S250	 0.531896	 0.806609	 1.000000 
S251	 0.531896	 0.806609	 0.000000 
Mo252	 0.453329	 0.885176	 0.500000 
Mo253	 0.546275	 0.860271	 0.500000 
S254	 0.506992	 0.899555	 1.000000 
S255	 0.506992	 0.899555	 0.000000 
S256	 0.414045	 0.924460	 1.000000 
S257	 0.414045	 0.924460	 0.000000 
Mo258	 0.428424	 0.978122	 0.500000 
Mo259	 0.992775	 0.481813	 0.500000 
S260	 0.953491	 0.521097	 1.000000 
S261	 0.953491	 0.521097	 0.000000 
Mo262	 0.874924	 0.599664	 0.500000 
Mo263	 0.967870	 0.574759	 0.500000 
S264	 0.928586	 0.614043	 1.000000 
S265	 0.928586	 0.614043	 0.000000 
S266	 0.835640	 0.638948	 1.000000 
S267	 0.835640	 0.638948	 0.000000 
Mo268	 0.757073	 0.717515	 0.500000 
Mo269	 0.850019	 0.692610	 0.500000 
S270	 0.810735	 0.731894	 1.000000 
S271	 0.810735	 0.731894	 0.000000 
S272	 0.717789	 0.756799	 1.000000 
S273	 0.717789	 0.756799	 0.000000 
Mo274	 0.639222	 0.835366	 0.500000 
Mo275	 0.732168	 0.810461	 0.500000 
S276	 0.692884	 0.849745	 1.000000 
S277	 0.692884	 0.849745	 0.000000 
S278	 0.599938	 0.874650	 1.000000 
S279	 0.599938	 0.874650	 0.000000 
Mo280	 0.521370	 0.953217	 0.500000 
Mo281	 0.614317	 0.928313	 0.500000 
S282	 0.575033	 0.967596	 1.000000 
S283	 0.575033	 0.967596	 0.000000 
S284	 0.482087	 0.992501	 1.000000 
S285	 0.482087	 0.992501	 0.000000 
Mo286	 0.942965	 0.667705	 0.500000 
S287	 0.996628	 0.682084	 1.000000 
S288	 0.996628	 0.682084	 0.000000 
S289	 0.903681	 0.706989	 1.000000 
S290	 0.903681	 0.706989	 0.000000 
Mo291	 0.825114	 0.785557	 0.500000 
Mo292	 0.918060	 0.760652	 0.500000 
S293	 0.878777	 0.799935	 1.000000 
S294	 0.878777	 0.799935	 0.000000 
S295	 0.785830	 0.824840	 1.000000 
S296	 0.785830	 0.824840	 0.000000 
Mo297	 0.707263	 0.903408	 0.500000 
Mo298	 0.800209	 0.878503	 0.500000 
S299	 0.760925	 0.917787	 1.000000 
S300	 0.760925	 0.917787	 0.000000 
S301	 0.667979	 0.942691	 1.000000 
S302	 0.667979	 0.942691	 0.000000 
Mo303	 0.682358	 0.996354	 0.500000 
#                 ---end-of-data-block---
