data_Single Layer of MoS2nx 10 ny 6 nz 1
_cell_length_a               32.423991
_cell_length_b               32.423991
_cell_length_c               3.080000
_cell_angle_alpha          90.000000
_cell_angle_beta           90.000000
_cell_angle_gamma          90.000000
_symmetry_cell_setting          Triclinic
_symmetry_space_group_name_H-M 'P 1' 
loop_
_atom_site_label
_atom_site_fract_x
_atom_site_fract_y
_atom_site_fract_z
S1	 0.333215	 0.018392	 1.000000 
S2	 0.333215	 0.018392	 0.000000 
Mo3	 0.254648	 0.096959	 0.500000 
Mo4	 0.347594	 0.072054	 0.500000 
S5	 0.308311	 0.111338	 1.000000 
S6	 0.308311	 0.111338	 0.000000 
S7	 0.215364	 0.136243	 1.000000 
S8	 0.215364	 0.136243	 0.000000 
Mo9	 0.136797	 0.214810	 0.500000 
Mo10	 0.229743	 0.189905	 0.500000 
S11	 0.190459	 0.229189	 1.000000 
S12	 0.190459	 0.229189	 0.000000 
S13	 0.097513	 0.254094	 1.000000 
S14	 0.097513	 0.254094	 0.000000 
Mo15	 0.018946	 0.332661	 0.500000 
Mo16	 0.111892	 0.307757	 0.500000 
S17	 0.072608	 0.347040	 1.000000 
S18	 0.072608	 0.347040	 0.000000 
Mo19	 0.440541	 0.047149	 0.500000 
Mo20	 0.533487	 0.022245	 0.500000 
S21	 0.494203	 0.061528	 1.000000 
S22	 0.494203	 0.061528	 0.000000 
S23	 0.401257	 0.086433	 1.000000 
S24	 0.401257	 0.086433	 0.000000 
Mo25	 0.322689	 0.165001	 0.500000 
Mo26	 0.415636	 0.140096	 0.500000 
S27	 0.376352	 0.179379	 1.000000 
S28	 0.376352	 0.179379	 0.000000 
S29	 0.283406	 0.204284	 1.000000 
S30	 0.283406	 0.204284	 0.000000 
Mo31	 0.204838	 0.282852	 0.500000 
Mo32	 0.297785	 0.257947	 0.500000 
S33	 0.258501	 0.297231	 1.000000 
S34	 0.258501	 0.297231	 0.000000 
S35	 0.165555	 0.322135	 1.000000 
S36	 0.165555	 0.322135	 0.000000 
Mo37	 0.086987	 0.400703	 0.500000 
Mo38	 0.179933	 0.375798	 0.500000 
S39	 0.140650	 0.415082	 1.000000 
S40	 0.140650	 0.415082	 0.000000 
S41	 0.047703	 0.439987	 1.000000 
S42	 0.047703	 0.439987	 0.000000 
Mo43	 0.062082	 0.493649	 0.500000 
S44	 0.022799	 0.532933	 1.000000 
S45	 0.022799	 0.532933	 0.000000 
S46	 0.587149	 0.036623	 1.000000 
S47	 0.587149	 0.036623	 0.000000 
Mo48	 0.508582	 0.115191	 0.500000 
Mo49	 0.601528	 0.090286	 0.500000 
S50	 0.562244	 0.129570	 1.000000 
S51	 0.562244	 0.129570	 0.000000 
S52	 0.469298	 0.154474	 1.000000 
S53	 0.469298	 0.154474	 0.000000 
Mo54	 0.390731	 0.233042	 0.500000 
Mo55	 0.483677	 0.208137	 0.500000 
S56	 0.444393	 0.247421	 1.000000 
S57	 0.444393	 0.247421	 0.000000 
S58	 0.351447	 0.272326	 1.000000 
S59	 0.351447	 0.272326	 0.000000 
Mo60	 0.272880	 0.350893	 0.500000 
Mo61	 0.365826	 0.325988	 0.500000 
S62	 0.326542	 0.365272	 1.000000 
S63	 0.326542	 0.365272	 0.000000 
S64	 0.233596	 0.390177	 1.000000 
S65	 0.233596	 0.390177	 0.000000 
Mo66	 0.155028	 0.468744	 0.500000 
Mo67	 0.247975	 0.443839	 0.500000 
S68	 0.208691	 0.483123	 1.000000 
S69	 0.208691	 0.483123	 0.000000 
S70	 0.115745	 0.508028	 1.000000 
S71	 0.115745	 0.508028	 0.000000 
Mo72	 0.037177	 0.586595	 0.500000 
Mo73	 0.130124	 0.561690	 0.500000 
S74	 0.090840	 0.600974	 1.000000 
S75	 0.090840	 0.600974	 0.000000 
Mo76	 0.012272	 0.679542	 0.500000 
S77	 0.680096	 0.011718	 1.000000 
S78	 0.680096	 0.011718	 0.000000 
S79	 0.655191	 0.104665	 1.000000 
S80	 0.655191	 0.104665	 0.000000 
Mo81	 0.576623	 0.183232	 0.500000 
Mo82	 0.669570	 0.158327	 0.500000 
S83	 0.630286	 0.197611	 1.000000 
S84	 0.630286	 0.197611	 0.000000 
S85	 0.537340	 0.222516	 1.000000 
S86	 0.537340	 0.222516	 0.000000 
Mo87	 0.458772	 0.301083	 0.500000 
Mo88	 0.551718	 0.276178	 0.500000 
S89	 0.512435	 0.315462	 1.000000 
S90	 0.512435	 0.315462	 0.000000 
S91	 0.419488	 0.340367	 1.000000 
S92	 0.419488	 0.340367	 0.000000 
Mo93	 0.340921	 0.418934	 0.500000 
Mo94	 0.433867	 0.394030	 0.500000 
S95	 0.394584	 0.433313	 1.000000 
S96	 0.394584	 0.433313	 0.000000 
S97	 0.301637	 0.458218	 1.000000 
S98	 0.301637	 0.458218	 0.000000 
Mo99	 0.223070	 0.536786	 0.500000 
Mo100	 0.316016	 0.511881	 0.500000 
S101	 0.276732	 0.551164	 1.000000 
S102	 0.276732	 0.551164	 0.000000 
S103	 0.183786	 0.576069	 1.000000 
S104	 0.183786	 0.576069	 0.000000 
Mo105	 0.105219	 0.654637	 0.500000 
Mo106	 0.198165	 0.629732	 0.500000 
S107	 0.158881	 0.669016	 1.000000 
S108	 0.158881	 0.669016	 0.000000 
S109	 0.065935	 0.693920	 1.000000 
S110	 0.065935	 0.693920	 0.000000 
Mo111	 0.694474	 0.065381	 0.500000 
Mo112	 0.080314	 0.747583	 0.500000 
S113	 0.748137	 0.079760	 1.000000 
S114	 0.748137	 0.079760	 0.000000 
S115	 0.723232	 0.172706	 1.000000 
S116	 0.723232	 0.172706	 0.000000 
Mo117	 0.644665	 0.251274	 0.500000 
Mo118	 0.737611	 0.226369	 0.500000 
S119	 0.698327	 0.265652	 1.000000 
S120	 0.698327	 0.265652	 0.000000 
S121	 0.605381	 0.290557	 1.000000 
S122	 0.605381	 0.290557	 0.000000 
Mo123	 0.526814	 0.369125	 0.500000 
Mo124	 0.619760	 0.344220	 0.500000 
S125	 0.580476	 0.383504	 1.000000 
S126	 0.580476	 0.383504	 0.000000 
S127	 0.487530	 0.408408	 1.000000 
S128	 0.487530	 0.408408	 0.000000 
Mo129	 0.408962	 0.486976	 0.500000 
Mo130	 0.501909	 0.462071	 0.500000 
S131	 0.462625	 0.501355	 1.000000 
S132	 0.462625	 0.501355	 0.000000 
S133	 0.369679	 0.526260	 1.000000 
S134	 0.369679	 0.526260	 0.000000 
Mo135	 0.291111	 0.604827	 0.500000 
Mo136	 0.384058	 0.579922	 0.500000 
S137	 0.344774	 0.619206	 1.000000 
S138	 0.344774	 0.619206	 0.000000 
S139	 0.251828	 0.644111	 1.000000 
S140	 0.251828	 0.644111	 0.000000 
Mo141	 0.173260	 0.722678	 0.500000 
Mo142	 0.266206	 0.697773	 0.500000 
S143	 0.226923	 0.737057	 1.000000 
S144	 0.226923	 0.737057	 0.000000 
S145	 0.133976	 0.761962	 1.000000 
S146	 0.133976	 0.761962	 0.000000 
Mo147	 0.762516	 0.133422	 0.500000 
Mo148	 0.148355	 0.815624	 0.500000 
S149	 0.816178	 0.147801	 1.000000 
S150	 0.816178	 0.147801	 0.000000 
S151	 0.791273	 0.240748	 1.000000 
S152	 0.791273	 0.240748	 0.000000 
Mo153	 0.712706	 0.319315	 0.500000 
Mo154	 0.805652	 0.294410	 0.500000 
S155	 0.766369	 0.333694	 1.000000 
S156	 0.766369	 0.333694	 0.000000 
S157	 0.673422	 0.358599	 1.000000 
S158	 0.673422	 0.358599	 0.000000 
Mo159	 0.594855	 0.437166	 0.500000 
Mo160	 0.687801	 0.412261	 0.500000 
S161	 0.648517	 0.451545	 1.000000 
S162	 0.648517	 0.451545	 0.000000 
S163	 0.555571	 0.476450	 1.000000 
S164	 0.555571	 0.476450	 0.000000 
Mo165	 0.477004	 0.555017	 0.500000 
Mo166	 0.569950	 0.530112	 0.500000 
S167	 0.530666	 0.569396	 1.000000 
S168	 0.530666	 0.569396	 0.000000 
S169	 0.437720	 0.594301	 1.000000 
S170	 0.437720	 0.594301	 0.000000 
Mo171	 0.359153	 0.672868	 0.500000 
Mo172	 0.452099	 0.647963	 0.500000 
S173	 0.412815	 0.687247	 1.000000 
S174	 0.412815	 0.687247	 0.000000 
S175	 0.319869	 0.712152	 1.000000 
S176	 0.319869	 0.712152	 0.000000 
Mo177	 0.241302	 0.790719	 0.500000 
Mo178	 0.334248	 0.765815	 0.500000 
S179	 0.294964	 0.805098	 1.000000 
S180	 0.294964	 0.805098	 0.000000 
S181	 0.202018	 0.830003	 1.000000 
S182	 0.202018	 0.830003	 0.000000 
Mo183	 0.830557	 0.201464	 0.500000 
Mo184	 0.216397	 0.883666	 0.500000 
S185	 0.884220	 0.215843	 1.000000 
S186	 0.884220	 0.215843	 0.000000 
S187	 0.859315	 0.308789	 1.000000 
S188	 0.859315	 0.308789	 0.000000 
Mo189	 0.780747	 0.387356	 0.500000 
Mo190	 0.873694	 0.362451	 0.500000 
S191	 0.834410	 0.401735	 1.000000 
S192	 0.834410	 0.401735	 0.000000 
S193	 0.741464	 0.426640	 1.000000 
S194	 0.741464	 0.426640	 0.000000 
Mo195	 0.662896	 0.505207	 0.500000 
Mo196	 0.755843	 0.480303	 0.500000 
S197	 0.716559	 0.519586	 1.000000 
S198	 0.716559	 0.519586	 0.000000 
S199	 0.623613	 0.544491	 1.000000 
S200	 0.623613	 0.544491	 0.000000 
Mo201	 0.545045	 0.623059	 0.500000 
Mo202	 0.637991	 0.598154	 0.500000 
S203	 0.598708	 0.637437	 1.000000 
S204	 0.598708	 0.637437	 0.000000 
S205	 0.505761	 0.662342	 1.000000 
S206	 0.505761	 0.662342	 0.000000 
Mo207	 0.427194	 0.740910	 0.500000 
Mo208	 0.520140	 0.716005	 0.500000 
S209	 0.480857	 0.755289	 1.000000 
S210	 0.480857	 0.755289	 0.000000 
S211	 0.387910	 0.780193	 1.000000 
S212	 0.387910	 0.780193	 0.000000 
Mo213	 0.309343	 0.858761	 0.500000 
Mo214	 0.402289	 0.833856	 0.500000 
S215	 0.363005	 0.873140	 1.000000 
S216	 0.363005	 0.873140	 0.000000 
S217	 0.270059	 0.898045	 1.000000 
S218	 0.270059	 0.898045	 0.000000 
Mo219	 0.898599	 0.269505	 0.500000 
Mo220	 0.284438	 0.951707	 0.500000 
S221	 0.952261	 0.283884	 1.000000 
S222	 0.952261	 0.283884	 0.000000 
S223	 0.927356	 0.376830	 1.000000 
S224	 0.927356	 0.376830	 0.000000 
Mo225	 0.848789	 0.455398	 0.500000 
Mo226	 0.941735	 0.430493	 0.500000 
S227	 0.902451	 0.469777	 1.000000 
S228	 0.902451	 0.469777	 0.000000 
S229	 0.809505	 0.494681	 1.000000 
S230	 0.809505	 0.494681	 0.000000 
Mo231	 0.730938	 0.573249	 0.500000 
Mo232	 0.823884	 0.548344	 0.500000 
S233	 0.784600	 0.587628	 1.000000 
S234	 0.784600	 0.587628	 0.000000 
S235	 0.691654	 0.612533	 1.000000 
S236	 0.691654	 0.612533	 0.000000 
Mo237	 0.613087	 0.691100	 0.500000 
Mo238	 0.706033	 0.666195	 0.500000 
S239	 0.666749	 0.705479	 1.000000 
S240	 0.666749	 0.705479	 0.000000 
S241	 0.573803	 0.730384	 1.000000 
S242	 0.573803	 0.730384	 0.000000 
Mo243	 0.495235	 0.808951	 0.500000 
Mo244	 0.588182	 0.784046	 0.500000 
S245	 0.548898	 0.823330	 1.000000 
S246	 0.548898	 0.823330	 0.000000 
S247	 0.455952	 0.848235	 1.000000 
S248	 0.455952	 0.848235	 0.000000 
Mo249	 0.377384	 0.926802	 0.500000 
Mo250	 0.470331	 0.901897	 0.500000 
S251	 0.431047	 0.941181	 1.000000 
S252	 0.431047	 0.941181	 0.000000 
S253	 0.338101	 0.966086	 1.000000 
S254	 0.338101	 0.966086	 0.000000 
Mo255	 0.966640	 0.337547	 0.500000 
S256	 0.995398	 0.444872	 1.000000 
S257	 0.995398	 0.444872	 0.000000 
Mo258	 0.916830	 0.523439	 0.500000 
S259	 0.970493	 0.537818	 1.000000 
S260	 0.970493	 0.537818	 0.000000 
S261	 0.877546	 0.562723	 1.000000 
S262	 0.877546	 0.562723	 0.000000 
Mo263	 0.798979	 0.641290	 0.500000 
Mo264	 0.891925	 0.616385	 0.500000 
S265	 0.852642	 0.655669	 1.000000 
S266	 0.852642	 0.655669	 0.000000 
S267	 0.759695	 0.680574	 1.000000 
S268	 0.759695	 0.680574	 0.000000 
Mo269	 0.681128	 0.759141	 0.500000 
Mo270	 0.774074	 0.734236	 0.500000 
S271	 0.734790	 0.773520	 1.000000 
S272	 0.734790	 0.773520	 0.000000 
S273	 0.641844	 0.798425	 1.000000 
S274	 0.641844	 0.798425	 0.000000 
Mo275	 0.563277	 0.876992	 0.500000 
Mo276	 0.656223	 0.852088	 0.500000 
S277	 0.616939	 0.891371	 1.000000 
S278	 0.616939	 0.891371	 0.000000 
S279	 0.523993	 0.916276	 1.000000 
S280	 0.523993	 0.916276	 0.000000 
Mo281	 0.445426	 0.994844	 0.500000 
Mo282	 0.538372	 0.969939	 0.500000 
Mo283	 0.984872	 0.591480	 0.500000 
S284	 0.945588	 0.630764	 1.000000 
S285	 0.945588	 0.630764	 0.000000 
Mo286	 0.867020	 0.709332	 0.500000 
Mo287	 0.959967	 0.684427	 0.500000 
S288	 0.920683	 0.723710	 1.000000 
S289	 0.920683	 0.723710	 0.000000 
S290	 0.827737	 0.748615	 1.000000 
S291	 0.827737	 0.748615	 0.000000 
Mo292	 0.749169	 0.827183	 0.500000 
Mo293	 0.842116	 0.802278	 0.500000 
S294	 0.802832	 0.841562	 1.000000 
S295	 0.802832	 0.841562	 0.000000 
S296	 0.709886	 0.866466	 1.000000 
S297	 0.709886	 0.866466	 0.000000 
Mo298	 0.631318	 0.945034	 0.500000 
Mo299	 0.724264	 0.920129	 0.500000 
S300	 0.684981	 0.959413	 1.000000 
S301	 0.684981	 0.959413	 0.000000 
S302	 0.592034	 0.984318	 1.000000 
S303	 0.592034	 0.984318	 0.000000 
#                 ---end-of-data-block---
