data_Single Layer of MoS2nx 10 ny 6 nz 1
_cell_length_a               32.423991
_cell_length_b               32.423991
_cell_length_c               3.080000
_cell_angle_alpha          90.000000
_cell_angle_beta           90.000000
_cell_angle_gamma          90.000000
_symmetry_cell_setting          Triclinic
_symmetry_space_group_name_H-M 'P 1' 
loop_
_atom_site_label
_atom_site_fract_x
_atom_site_fract_y
_atom_site_fract_z
S1	 0.767515	 0.000111	 1.000000 
S2	 0.767515	 0.000111	 0.000000 
Mo3	 0.660189	 0.028868	 0.500000 
Mo4	 0.753136	 0.053773	 0.500000 
S5	 0.699473	 0.068152	 1.000000 
S6	 0.699473	 0.068152	 0.000000 
S7	 0.606527	 0.043247	 1.000000 
S8	 0.606527	 0.043247	 0.000000 
Mo9	 0.499202	 0.072005	 0.500000 
Mo10	 0.592148	 0.096910	 0.500000 
S11	 0.538485	 0.111288	 1.000000 
S12	 0.538485	 0.111288	 0.000000 
S13	 0.445539	 0.086384	 1.000000 
S14	 0.445539	 0.086384	 0.000000 
Mo15	 0.338214	 0.115141	 0.500000 
Mo16	 0.431160	 0.140046	 0.500000 
S17	 0.377498	 0.154425	 1.000000 
S18	 0.377498	 0.154425	 0.000000 
S19	 0.284552	 0.129520	 1.000000 
S20	 0.284552	 0.129520	 0.000000 
Mo21	 0.177227	 0.158278	 0.500000 
Mo22	 0.270173	 0.183183	 0.500000 
S23	 0.216510	 0.197561	 1.000000 
S24	 0.216510	 0.197561	 0.000000 
S25	 0.123564	 0.172657	 1.000000 
S26	 0.123564	 0.172657	 0.000000 
Mo27	 0.016239	 0.201414	 0.500000 
Mo28	 0.109185	 0.226319	 0.500000 
S29	 0.055523	 0.240698	 1.000000 
S30	 0.055523	 0.240698	 0.000000 
S31	 0.860461	 0.025015	 1.000000 
S32	 0.860461	 0.025015	 0.000000 
S33	 0.792419	 0.093057	 1.000000 
S34	 0.792419	 0.093057	 0.000000 
Mo35	 0.685094	 0.121814	 0.500000 
Mo36	 0.778041	 0.146719	 0.500000 
S37	 0.724378	 0.161098	 1.000000 
S38	 0.724378	 0.161098	 0.000000 
S39	 0.631432	 0.136193	 1.000000 
S40	 0.631432	 0.136193	 0.000000 
Mo41	 0.524107	 0.164951	 0.500000 
Mo42	 0.617053	 0.189856	 0.500000 
S43	 0.563390	 0.204235	 1.000000 
S44	 0.563390	 0.204235	 0.000000 
S45	 0.470444	 0.179330	 1.000000 
S46	 0.470444	 0.179330	 0.000000 
Mo47	 0.363119	 0.208087	 0.500000 
Mo48	 0.456065	 0.232992	 0.500000 
S49	 0.402403	 0.247371	 1.000000 
S50	 0.402403	 0.247371	 0.000000 
S51	 0.309456	 0.222466	 1.000000 
S52	 0.309456	 0.222466	 0.000000 
Mo53	 0.202131	 0.251224	 0.500000 
Mo54	 0.295078	 0.276129	 0.500000 
S55	 0.241415	 0.290508	 1.000000 
S56	 0.241415	 0.290508	 0.000000 
S57	 0.148469	 0.265603	 1.000000 
S58	 0.148469	 0.265603	 0.000000 
Mo59	 0.041144	 0.294360	 0.500000 
Mo60	 0.134090	 0.319265	 0.500000 
S61	 0.080427	 0.333644	 1.000000 
S62	 0.080427	 0.333644	 0.000000 
Mo63	 0.846082	 0.078678	 0.500000 
S64	 0.885366	 0.117962	 1.000000 
S65	 0.885366	 0.117962	 0.000000 
S66	 0.817324	 0.186003	 1.000000 
S67	 0.817324	 0.186003	 0.000000 
Mo68	 0.709999	 0.214761	 0.500000 
Mo69	 0.802945	 0.239666	 0.500000 
S70	 0.749283	 0.254044	 1.000000 
S71	 0.749283	 0.254044	 0.000000 
S72	 0.656337	 0.229140	 1.000000 
S73	 0.656337	 0.229140	 0.000000 
Mo74	 0.549012	 0.257897	 0.500000 
Mo75	 0.641958	 0.282802	 0.500000 
S76	 0.588295	 0.297181	 1.000000 
S77	 0.588295	 0.297181	 0.000000 
S78	 0.495349	 0.272276	 1.000000 
S79	 0.495349	 0.272276	 0.000000 
Mo80	 0.388024	 0.301034	 0.500000 
Mo81	 0.480970	 0.325939	 0.500000 
S82	 0.427308	 0.340317	 1.000000 
S83	 0.427308	 0.340317	 0.000000 
S84	 0.334361	 0.315413	 1.000000 
S85	 0.334361	 0.315413	 0.000000 
Mo86	 0.227036	 0.344170	 0.500000 
Mo87	 0.319983	 0.369075	 0.500000 
S88	 0.266320	 0.383454	 1.000000 
S89	 0.266320	 0.383454	 0.000000 
S90	 0.173374	 0.358549	 1.000000 
S91	 0.173374	 0.358549	 0.000000 
Mo92	 0.066049	 0.387307	 0.500000 
Mo93	 0.158995	 0.412212	 0.500000 
S94	 0.105332	 0.426590	 1.000000 
S95	 0.105332	 0.426590	 0.000000 
S96	 0.012386	 0.401686	 1.000000 
S97	 0.012386	 0.401686	 0.000000 
Mo98	 0.870987	 0.171624	 0.500000 
S99	 0.910271	 0.210908	 1.000000 
S100	 0.910271	 0.210908	 0.000000 
S101	 0.842229	 0.278949	 1.000000 
S102	 0.842229	 0.278949	 0.000000 
Mo103	 0.734904	 0.307707	 0.500000 
Mo104	 0.827850	 0.332612	 0.500000 
S105	 0.774188	 0.346991	 1.000000 
S106	 0.774188	 0.346991	 0.000000 
S107	 0.681241	 0.322086	 1.000000 
S108	 0.681241	 0.322086	 0.000000 
Mo109	 0.573916	 0.350843	 0.500000 
Mo110	 0.666863	 0.375748	 0.500000 
S111	 0.613200	 0.390127	 1.000000 
S112	 0.613200	 0.390127	 0.000000 
S113	 0.520254	 0.365222	 1.000000 
S114	 0.520254	 0.365222	 0.000000 
Mo115	 0.412929	 0.393980	 0.500000 
Mo116	 0.505875	 0.418885	 0.500000 
S117	 0.452212	 0.433264	 1.000000 
S118	 0.452212	 0.433264	 0.000000 
S119	 0.359266	 0.408359	 1.000000 
S120	 0.359266	 0.408359	 0.000000 
Mo121	 0.251941	 0.437116	 0.500000 
Mo122	 0.344887	 0.462021	 0.500000 
S123	 0.291225	 0.476400	 1.000000 
S124	 0.291225	 0.476400	 0.000000 
S125	 0.198279	 0.451495	 1.000000 
S126	 0.198279	 0.451495	 0.000000 
Mo127	 0.090953	 0.480253	 0.500000 
Mo128	 0.183900	 0.505158	 0.500000 
S129	 0.130237	 0.519537	 1.000000 
S130	 0.130237	 0.519537	 0.000000 
S131	 0.037291	 0.494632	 1.000000 
S132	 0.037291	 0.494632	 0.000000 
Mo133	 0.895892	 0.264570	 0.500000 
Mo134	 0.022912	 0.548294	 0.500000 
S135	 0.935175	 0.303854	 1.000000 
S136	 0.935175	 0.303854	 0.000000 
S137	 0.867134	 0.371896	 1.000000 
S138	 0.867134	 0.371896	 0.000000 
Mo139	 0.759809	 0.400653	 0.500000 
Mo140	 0.852755	 0.425558	 0.500000 
S141	 0.799093	 0.439937	 1.000000 
S142	 0.799093	 0.439937	 0.000000 
S143	 0.706146	 0.415032	 1.000000 
S144	 0.706146	 0.415032	 0.000000 
Mo145	 0.598821	 0.443790	 0.500000 
Mo146	 0.691768	 0.468695	 0.500000 
S147	 0.638105	 0.483073	 1.000000 
S148	 0.638105	 0.483073	 0.000000 
S149	 0.545159	 0.458169	 1.000000 
S150	 0.545159	 0.458169	 0.000000 
Mo151	 0.437834	 0.486926	 0.500000 
Mo152	 0.530780	 0.511831	 0.500000 
S153	 0.477117	 0.526210	 1.000000 
S154	 0.477117	 0.526210	 0.000000 
S155	 0.384171	 0.501305	 1.000000 
S156	 0.384171	 0.501305	 0.000000 
Mo157	 0.276846	 0.530063	 0.500000 
Mo158	 0.369792	 0.554968	 0.500000 
S159	 0.316130	 0.569346	 1.000000 
S160	 0.316130	 0.569346	 0.000000 
S161	 0.223183	 0.544442	 1.000000 
S162	 0.223183	 0.544442	 0.000000 
Mo163	 0.115858	 0.573199	 0.500000 
Mo164	 0.208805	 0.598104	 0.500000 
S165	 0.155142	 0.612483	 1.000000 
S166	 0.155142	 0.612483	 0.000000 
S167	 0.062196	 0.587578	 1.000000 
S168	 0.062196	 0.587578	 0.000000 
Mo169	 0.920797	 0.357517	 0.500000 
Mo170	 0.047817	 0.641241	 0.500000 
S171	 0.960080	 0.396800	 1.000000 
S172	 0.960080	 0.396800	 0.000000 
S173	 0.892039	 0.464842	 1.000000 
S174	 0.892039	 0.464842	 0.000000 
Mo175	 0.784714	 0.493599	 0.500000 
Mo176	 0.877660	 0.518504	 0.500000 
S177	 0.823997	 0.532883	 1.000000 
S178	 0.823997	 0.532883	 0.000000 
S179	 0.731051	 0.507978	 1.000000 
S180	 0.731051	 0.507978	 0.000000 
Mo181	 0.623726	 0.536736	 0.500000 
Mo182	 0.716672	 0.561641	 0.500000 
S183	 0.663010	 0.576020	 1.000000 
S184	 0.663010	 0.576020	 0.000000 
S185	 0.570064	 0.551115	 1.000000 
S186	 0.570064	 0.551115	 0.000000 
Mo187	 0.462739	 0.579872	 0.500000 
Mo188	 0.555685	 0.604777	 0.500000 
S189	 0.502022	 0.619156	 1.000000 
S190	 0.502022	 0.619156	 0.000000 
S191	 0.409076	 0.594251	 1.000000 
S192	 0.409076	 0.594251	 0.000000 
Mo193	 0.301751	 0.623009	 0.500000 
Mo194	 0.394697	 0.647914	 0.500000 
S195	 0.341035	 0.662293	 1.000000 
S196	 0.341035	 0.662293	 0.000000 
S197	 0.248088	 0.637388	 1.000000 
S198	 0.248088	 0.637388	 0.000000 
Mo199	 0.140763	 0.666145	 0.500000 
Mo200	 0.233709	 0.691050	 0.500000 
S201	 0.180047	 0.705429	 1.000000 
S202	 0.180047	 0.705429	 0.000000 
S203	 0.087101	 0.680524	 1.000000 
S204	 0.087101	 0.680524	 0.000000 
Mo205	 0.945701	 0.450463	 0.500000 
Mo206	 0.072722	 0.734187	 0.500000 
S207	 0.984985	 0.489747	 1.000000 
S208	 0.984985	 0.489747	 0.000000 
S209	 0.916944	 0.557788	 1.000000 
S210	 0.916944	 0.557788	 0.000000 
Mo211	 0.809619	 0.586546	 0.500000 
Mo212	 0.902565	 0.611451	 0.500000 
S213	 0.848902	 0.625829	 1.000000 
S214	 0.848902	 0.625829	 0.000000 
S215	 0.755956	 0.600925	 1.000000 
S216	 0.755956	 0.600925	 0.000000 
Mo217	 0.648631	 0.629682	 0.500000 
Mo218	 0.741577	 0.654587	 0.500000 
S219	 0.687915	 0.668966	 1.000000 
S220	 0.687915	 0.668966	 0.000000 
S221	 0.594968	 0.644061	 1.000000 
S222	 0.594968	 0.644061	 0.000000 
Mo223	 0.487643	 0.672819	 0.500000 
Mo224	 0.580590	 0.697724	 0.500000 
S225	 0.526927	 0.712102	 1.000000 
S226	 0.526927	 0.712102	 0.000000 
S227	 0.433981	 0.687198	 1.000000 
S228	 0.433981	 0.687198	 0.000000 
Mo229	 0.326656	 0.715955	 0.500000 
Mo230	 0.419602	 0.740860	 0.500000 
S231	 0.365939	 0.755239	 1.000000 
S232	 0.365939	 0.755239	 0.000000 
S233	 0.272993	 0.730334	 1.000000 
S234	 0.272993	 0.730334	 0.000000 
Mo235	 0.165668	 0.759092	 0.500000 
Mo236	 0.258614	 0.783997	 0.500000 
S237	 0.204952	 0.798375	 1.000000 
S238	 0.204952	 0.798375	 0.000000 
S239	 0.112006	 0.773471	 1.000000 
S240	 0.112006	 0.773471	 0.000000 
Mo241	 0.970606	 0.543409	 0.500000 
Mo242	 0.097627	 0.827133	 0.500000 
S243	 0.941849	 0.650734	 1.000000 
S244	 0.941849	 0.650734	 0.000000 
Mo245	 0.834524	 0.679492	 0.500000 
Mo246	 0.927470	 0.704397	 0.500000 
S247	 0.873807	 0.718776	 1.000000 
S248	 0.873807	 0.718776	 0.000000 
S249	 0.780861	 0.693871	 1.000000 
S250	 0.780861	 0.693871	 0.000000 
Mo251	 0.673536	 0.722628	 0.500000 
Mo252	 0.766482	 0.747533	 0.500000 
S253	 0.712820	 0.761912	 1.000000 
S254	 0.712820	 0.761912	 0.000000 
S255	 0.619873	 0.737007	 1.000000 
S256	 0.619873	 0.737007	 0.000000 
Mo257	 0.512548	 0.765765	 0.500000 
Mo258	 0.605495	 0.790670	 0.500000 
S259	 0.551832	 0.805049	 1.000000 
S260	 0.551832	 0.805049	 0.000000 
S261	 0.458886	 0.780144	 1.000000 
S262	 0.458886	 0.780144	 0.000000 
Mo263	 0.351561	 0.808901	 0.500000 
Mo264	 0.444507	 0.833806	 0.500000 
S265	 0.390844	 0.848185	 1.000000 
S266	 0.390844	 0.848185	 0.000000 
S267	 0.297898	 0.823280	 1.000000 
S268	 0.297898	 0.823280	 0.000000 
Mo269	 0.190573	 0.852038	 0.500000 
Mo270	 0.283519	 0.876943	 0.500000 
S271	 0.229857	 0.891322	 1.000000 
S272	 0.229857	 0.891322	 0.000000 
S273	 0.136910	 0.866417	 1.000000 
S274	 0.136910	 0.866417	 0.000000 
Mo275	 0.995511	 0.636355	 0.500000 
Mo276	 0.122532	 0.920079	 0.500000 
S277	 0.966754	 0.743681	 1.000000 
S278	 0.966754	 0.743681	 0.000000 
Mo279	 0.859428	 0.772438	 0.500000 
Mo280	 0.952375	 0.797343	 0.500000 
S281	 0.898712	 0.811722	 1.000000 
S282	 0.898712	 0.811722	 0.000000 
S283	 0.805766	 0.786817	 1.000000 
S284	 0.805766	 0.786817	 0.000000 
Mo285	 0.698441	 0.815575	 0.500000 
Mo286	 0.791387	 0.840480	 0.500000 
S287	 0.737724	 0.854858	 1.000000 
S288	 0.737724	 0.854858	 0.000000 
S289	 0.644778	 0.829954	 1.000000 
S290	 0.644778	 0.829954	 0.000000 
Mo291	 0.537453	 0.858711	 0.500000 
Mo292	 0.630399	 0.883616	 0.500000 
S293	 0.576737	 0.897995	 1.000000 
S294	 0.576737	 0.897995	 0.000000 
S295	 0.483791	 0.873090	 1.000000 
S296	 0.483791	 0.873090	 0.000000 
Mo297	 0.376465	 0.901848	 0.500000 
Mo298	 0.469412	 0.926753	 0.500000 
S299	 0.415749	 0.941131	 1.000000 
S300	 0.415749	 0.941131	 0.000000 
S301	 0.322803	 0.916227	 1.000000 
S302	 0.322803	 0.916227	 0.000000 
Mo303	 0.215478	 0.944984	 0.500000 
Mo304	 0.308424	 0.969889	 0.500000 
S305	 0.254762	 0.984268	 1.000000 
S306	 0.254762	 0.984268	 0.000000 
S307	 0.161815	 0.959363	 1.000000 
S308	 0.161815	 0.959363	 0.000000 
S309	 0.991658	 0.836627	 1.000000 
S310	 0.991658	 0.836627	 0.000000 
Mo311	 0.884333	 0.865384	 0.500000 
S312	 0.830671	 0.879763	 1.000000 
S313	 0.830671	 0.879763	 0.000000 
Mo314	 0.723346	 0.908521	 0.500000 
Mo315	 0.567243	 0.003963	 0.500000 
S316	 0.513581	 0.018342	 1.000000 
S317	 0.513581	 0.018342	 0.000000 
S318	 0.669683	 0.922900	 1.000000 
S319	 0.669683	 0.922900	 0.000000 
Mo320	 0.562358	 0.951657	 0.500000 
Mo321	 0.406256	 0.047100	 0.500000 
S322	 0.352593	 0.061479	 1.000000 
S323	 0.352593	 0.061479	 0.000000 
S324	 0.508695	 0.966036	 1.000000 
S325	 0.508695	 0.966036	 0.000000 
Mo326	 0.401370	 0.994794	 0.500000 
Mo327	 0.245268	 0.090236	 0.500000 
S328	 0.191605	 0.104615	 1.000000 
S329	 0.191605	 0.104615	 0.000000 
Mo330	 0.084280	 0.133373	 0.500000 
S331	 0.030618	 0.147752	 1.000000 
S332	 0.030618	 0.147752	 0.000000 
#                 ---end-of-data-block---
