data_Single Layer of MoS2nx 10 ny 6 nz 1
_cell_length_a               32.423991
_cell_length_b               32.423991
_cell_length_c               3.080000
_cell_angle_alpha          90.000000
_cell_angle_beta           90.000000
_cell_angle_gamma          90.000000
_symmetry_cell_setting          Triclinic
_symmetry_space_group_name_H-M 'P 1' 
loop_
_atom_site_label
_atom_site_fract_x
_atom_site_fract_y
_atom_site_fract_z
Mo1	 0.487331	 0.027550	 0.500000 
Mo2	 0.583556	 0.027550	 0.500000 
S3	 0.535444	 0.055327	 1.000000 
S4	 0.535444	 0.055327	 0.000000 
S5	 0.439219	 0.055327	 1.000000 
S6	 0.439219	 0.055327	 0.000000 
Mo7	 0.342994	 0.110883	 0.500000 
Mo8	 0.439219	 0.110883	 0.500000 
S9	 0.391106	 0.138661	 1.000000 
S10	 0.391106	 0.138661	 0.000000 
S11	 0.294881	 0.138661	 1.000000 
S12	 0.294881	 0.138661	 0.000000 
Mo13	 0.198656	 0.194216	 0.500000 
Mo14	 0.294881	 0.194216	 0.500000 
S15	 0.246769	 0.221994	 1.000000 
S16	 0.246769	 0.221994	 0.000000 
S17	 0.150544	 0.221994	 1.000000 
S18	 0.150544	 0.221994	 0.000000 
Mo19	 0.054319	 0.277550	 0.500000 
Mo20	 0.150544	 0.277550	 0.500000 
S21	 0.102431	 0.305327	 1.000000 
S22	 0.102431	 0.305327	 0.000000 
S23	 0.006206	 0.305327	 1.000000 
S24	 0.006206	 0.305327	 0.000000 
Mo25	 0.006206	 0.360883	 0.500000 
S26	 0.631669	 0.055327	 1.000000 
S27	 0.631669	 0.055327	 0.000000 
Mo28	 0.535444	 0.110883	 0.500000 
Mo29	 0.631669	 0.110883	 0.500000 
S30	 0.583556	 0.138661	 1.000000 
S31	 0.583556	 0.138661	 0.000000 
S32	 0.487331	 0.138661	 1.000000 
S33	 0.487331	 0.138661	 0.000000 
Mo34	 0.391106	 0.194216	 0.500000 
Mo35	 0.487331	 0.194216	 0.500000 
S36	 0.439219	 0.221994	 1.000000 
S37	 0.439219	 0.221994	 0.000000 
S38	 0.342994	 0.221994	 1.000000 
S39	 0.342994	 0.221994	 0.000000 
Mo40	 0.246769	 0.277550	 0.500000 
Mo41	 0.342994	 0.277550	 0.500000 
S42	 0.294881	 0.305327	 1.000000 
S43	 0.294881	 0.305327	 0.000000 
S44	 0.198656	 0.305327	 1.000000 
S45	 0.198656	 0.305327	 0.000000 
Mo46	 0.102431	 0.360883	 0.500000 
Mo47	 0.198656	 0.360883	 0.500000 
S48	 0.150544	 0.388661	 1.000000 
S49	 0.150544	 0.388661	 0.000000 
S50	 0.054319	 0.388661	 1.000000 
S51	 0.054319	 0.388661	 0.000000 
Mo52	 0.054319	 0.444216	 0.500000 
S53	 0.006206	 0.471994	 1.000000 
S54	 0.006206	 0.471994	 0.000000 
Mo55	 0.679781	 0.027550	 0.500000 
Mo56	 0.776006	 0.027550	 0.500000 
S57	 0.727894	 0.055327	 1.000000 
S58	 0.727894	 0.055327	 0.000000 
S59	 0.679781	 0.138661	 1.000000 
S60	 0.679781	 0.138661	 0.000000 
Mo61	 0.583556	 0.194216	 0.500000 
Mo62	 0.679781	 0.194216	 0.500000 
S63	 0.631669	 0.221994	 1.000000 
S64	 0.631669	 0.221994	 0.000000 
S65	 0.535444	 0.221994	 1.000000 
S66	 0.535444	 0.221994	 0.000000 
Mo67	 0.439219	 0.277550	 0.500000 
Mo68	 0.535444	 0.277550	 0.500000 
S69	 0.487331	 0.305327	 1.000000 
S70	 0.487331	 0.305327	 0.000000 
S71	 0.391106	 0.305327	 1.000000 
S72	 0.391106	 0.305327	 0.000000 
Mo73	 0.294881	 0.360883	 0.500000 
Mo74	 0.391106	 0.360883	 0.500000 
S75	 0.342994	 0.388661	 1.000000 
S76	 0.342994	 0.388661	 0.000000 
S77	 0.246769	 0.388661	 1.000000 
S78	 0.246769	 0.388661	 0.000000 
Mo79	 0.150544	 0.444216	 0.500000 
Mo80	 0.246769	 0.444216	 0.500000 
S81	 0.198656	 0.471994	 1.000000 
S82	 0.198656	 0.471994	 0.000000 
S83	 0.102431	 0.471994	 1.000000 
S84	 0.102431	 0.471994	 0.000000 
Mo85	 0.006206	 0.527550	 0.500000 
Mo86	 0.102431	 0.527550	 0.500000 
S87	 0.054319	 0.555327	 1.000000 
S88	 0.054319	 0.555327	 0.000000 
Mo89	 0.727894	 0.110883	 0.500000 
Mo90	 0.824119	 0.110883	 0.500000 
S91	 0.776006	 0.138661	 1.000000 
S92	 0.776006	 0.138661	 0.000000 
S93	 0.727894	 0.221994	 1.000000 
S94	 0.727894	 0.221994	 0.000000 
Mo95	 0.631669	 0.277550	 0.500000 
Mo96	 0.727894	 0.277550	 0.500000 
S97	 0.679781	 0.305327	 1.000000 
S98	 0.679781	 0.305327	 0.000000 
S99	 0.583556	 0.305327	 1.000000 
S100	 0.583556	 0.305327	 0.000000 
Mo101	 0.487331	 0.360883	 0.500000 
Mo102	 0.583556	 0.360883	 0.500000 
S103	 0.535444	 0.388661	 1.000000 
S104	 0.535444	 0.388661	 0.000000 
S105	 0.439219	 0.388661	 1.000000 
S106	 0.439219	 0.388661	 0.000000 
Mo107	 0.342994	 0.444216	 0.500000 
Mo108	 0.439219	 0.444216	 0.500000 
S109	 0.391106	 0.471994	 1.000000 
S110	 0.391106	 0.471994	 0.000000 
S111	 0.294881	 0.471994	 1.000000 
S112	 0.294881	 0.471994	 0.000000 
Mo113	 0.198656	 0.527550	 0.500000 
Mo114	 0.294881	 0.527550	 0.500000 
S115	 0.246769	 0.555327	 1.000000 
S116	 0.246769	 0.555327	 0.000000 
S117	 0.150544	 0.555327	 1.000000 
S118	 0.150544	 0.555327	 0.000000 
Mo119	 0.054319	 0.610883	 0.500000 
Mo120	 0.150544	 0.610883	 0.500000 
S121	 0.102431	 0.638661	 1.000000 
S122	 0.102431	 0.638661	 0.000000 
S123	 0.006206	 0.638661	 1.000000 
S124	 0.006206	 0.638661	 0.000000 
Mo125	 0.776006	 0.194216	 0.500000 
Mo126	 0.872231	 0.194216	 0.500000 
S127	 0.824119	 0.221994	 1.000000 
S128	 0.824119	 0.221994	 0.000000 
S129	 0.776006	 0.305327	 1.000000 
S130	 0.776006	 0.305327	 0.000000 
Mo131	 0.679781	 0.360883	 0.500000 
Mo132	 0.776006	 0.360883	 0.500000 
S133	 0.727894	 0.388661	 1.000000 
S134	 0.727894	 0.388661	 0.000000 
S135	 0.631669	 0.388661	 1.000000 
S136	 0.631669	 0.388661	 0.000000 
Mo137	 0.535444	 0.444216	 0.500000 
Mo138	 0.631669	 0.444216	 0.500000 
S139	 0.583556	 0.471994	 1.000000 
S140	 0.583556	 0.471994	 0.000000 
S141	 0.487331	 0.471994	 1.000000 
S142	 0.487331	 0.471994	 0.000000 
Mo143	 0.391106	 0.527550	 0.500000 
Mo144	 0.487331	 0.527550	 0.500000 
S145	 0.439219	 0.555327	 1.000000 
S146	 0.439219	 0.555327	 0.000000 
S147	 0.342994	 0.555327	 1.000000 
S148	 0.342994	 0.555327	 0.000000 
Mo149	 0.246769	 0.610883	 0.500000 
Mo150	 0.342994	 0.610883	 0.500000 
S151	 0.294881	 0.638661	 1.000000 
S152	 0.294881	 0.638661	 0.000000 
S153	 0.198656	 0.638661	 1.000000 
S154	 0.198656	 0.638661	 0.000000 
Mo155	 0.102431	 0.694216	 0.500000 
Mo156	 0.198656	 0.694216	 0.500000 
S157	 0.150544	 0.721994	 1.000000 
S158	 0.150544	 0.721994	 0.000000 
S159	 0.054319	 0.721994	 1.000000 
S160	 0.054319	 0.721994	 0.000000 
Mo161	 0.824119	 0.277550	 0.500000 
Mo162	 0.920344	 0.277550	 0.500000 
S163	 0.872231	 0.305327	 1.000000 
S164	 0.872231	 0.305327	 0.000000 
S165	 0.824119	 0.388661	 1.000000 
S166	 0.824119	 0.388661	 0.000000 
Mo167	 0.727894	 0.444216	 0.500000 
Mo168	 0.824119	 0.444216	 0.500000 
S169	 0.776006	 0.471994	 1.000000 
S170	 0.776006	 0.471994	 0.000000 
S171	 0.679781	 0.471994	 1.000000 
S172	 0.679781	 0.471994	 0.000000 
Mo173	 0.583556	 0.527550	 0.500000 
Mo174	 0.679781	 0.527550	 0.500000 
S175	 0.631669	 0.555327	 1.000000 
S176	 0.631669	 0.555327	 0.000000 
S177	 0.535444	 0.555327	 1.000000 
S178	 0.535444	 0.555327	 0.000000 
Mo179	 0.439219	 0.610883	 0.500000 
Mo180	 0.535444	 0.610883	 0.500000 
S181	 0.487331	 0.638661	 1.000000 
S182	 0.487331	 0.638661	 0.000000 
S183	 0.391106	 0.638661	 1.000000 
S184	 0.391106	 0.638661	 0.000000 
Mo185	 0.294881	 0.694216	 0.500000 
Mo186	 0.391106	 0.694216	 0.500000 
S187	 0.342994	 0.721994	 1.000000 
S188	 0.342994	 0.721994	 0.000000 
S189	 0.246769	 0.721994	 1.000000 
S190	 0.246769	 0.721994	 0.000000 
Mo191	 0.150544	 0.777550	 0.500000 
Mo192	 0.246769	 0.777550	 0.500000 
S193	 0.198656	 0.805327	 1.000000 
S194	 0.198656	 0.805327	 0.000000 
S195	 0.102431	 0.805327	 1.000000 
S196	 0.102431	 0.805327	 0.000000 
Mo197	 0.872231	 0.360883	 0.500000 
Mo198	 0.968457	 0.360883	 0.500000 
S199	 0.920344	 0.388661	 1.000000 
S200	 0.920344	 0.388661	 0.000000 
S201	 0.872231	 0.471994	 1.000000 
S202	 0.872231	 0.471994	 0.000000 
Mo203	 0.776006	 0.527550	 0.500000 
Mo204	 0.872231	 0.527550	 0.500000 
S205	 0.824119	 0.555327	 1.000000 
S206	 0.824119	 0.555327	 0.000000 
S207	 0.727894	 0.555327	 1.000000 
S208	 0.727894	 0.555327	 0.000000 
Mo209	 0.631669	 0.610883	 0.500000 
Mo210	 0.727894	 0.610883	 0.500000 
S211	 0.679781	 0.638661	 1.000000 
S212	 0.679781	 0.638661	 0.000000 
S213	 0.583556	 0.638661	 1.000000 
S214	 0.583556	 0.638661	 0.000000 
Mo215	 0.487331	 0.694216	 0.500000 
Mo216	 0.583556	 0.694216	 0.500000 
S217	 0.535444	 0.721994	 1.000000 
S218	 0.535444	 0.721994	 0.000000 
S219	 0.439219	 0.721994	 1.000000 
S220	 0.439219	 0.721994	 0.000000 
Mo221	 0.342994	 0.777550	 0.500000 
Mo222	 0.439219	 0.777550	 0.500000 
S223	 0.391106	 0.805327	 1.000000 
S224	 0.391106	 0.805327	 0.000000 
S225	 0.294881	 0.805327	 1.000000 
S226	 0.294881	 0.805327	 0.000000 
Mo227	 0.198656	 0.860883	 0.500000 
Mo228	 0.294881	 0.860883	 0.500000 
S229	 0.246769	 0.888661	 1.000000 
S230	 0.246769	 0.888661	 0.000000 
S231	 0.150544	 0.888661	 1.000000 
S232	 0.150544	 0.888661	 0.000000 
Mo233	 0.920344	 0.444216	 0.500000 
S234	 0.968457	 0.471994	 1.000000 
S235	 0.968457	 0.471994	 0.000000 
S236	 0.920344	 0.555327	 1.000000 
S237	 0.920344	 0.555327	 0.000000 
Mo238	 0.824119	 0.610883	 0.500000 
Mo239	 0.920344	 0.610883	 0.500000 
S240	 0.872231	 0.638661	 1.000000 
S241	 0.872231	 0.638661	 0.000000 
S242	 0.776006	 0.638661	 1.000000 
S243	 0.776006	 0.638661	 0.000000 
Mo244	 0.679781	 0.694216	 0.500000 
Mo245	 0.776006	 0.694216	 0.500000 
S246	 0.727894	 0.721994	 1.000000 
S247	 0.727894	 0.721994	 0.000000 
S248	 0.631669	 0.721994	 1.000000 
S249	 0.631669	 0.721994	 0.000000 
Mo250	 0.535444	 0.777550	 0.500000 
Mo251	 0.631669	 0.777550	 0.500000 
S252	 0.583556	 0.805327	 1.000000 
S253	 0.583556	 0.805327	 0.000000 
S254	 0.487331	 0.805327	 1.000000 
S255	 0.487331	 0.805327	 0.000000 
Mo256	 0.391106	 0.860883	 0.500000 
Mo257	 0.487331	 0.860883	 0.500000 
S258	 0.439219	 0.888661	 1.000000 
S259	 0.439219	 0.888661	 0.000000 
S260	 0.342994	 0.888661	 1.000000 
S261	 0.342994	 0.888661	 0.000000 
Mo262	 0.246769	 0.944216	 0.500000 
Mo263	 0.342994	 0.944216	 0.500000 
S264	 0.294881	 0.971994	 1.000000 
S265	 0.294881	 0.971994	 0.000000 
S266	 0.198656	 0.971994	 1.000000 
S267	 0.198656	 0.971994	 0.000000 
Mo268	 0.968457	 0.527550	 0.500000 
S269	 0.968457	 0.638661	 1.000000 
S270	 0.968457	 0.638661	 0.000000 
Mo271	 0.872231	 0.694216	 0.500000 
Mo272	 0.968457	 0.694216	 0.500000 
S273	 0.920344	 0.721994	 1.000000 
S274	 0.920344	 0.721994	 0.000000 
S275	 0.824119	 0.721994	 1.000000 
S276	 0.824119	 0.721994	 0.000000 
Mo277	 0.727894	 0.777550	 0.500000 
Mo278	 0.824119	 0.777550	 0.500000 
S279	 0.776006	 0.805327	 1.000000 
S280	 0.776006	 0.805327	 0.000000 
S281	 0.679781	 0.805327	 1.000000 
S282	 0.679781	 0.805327	 0.000000 
Mo283	 0.583556	 0.860883	 0.500000 
Mo284	 0.679781	 0.860883	 0.500000 
S285	 0.631669	 0.888661	 1.000000 
S286	 0.631669	 0.888661	 0.000000 
S287	 0.535444	 0.888661	 1.000000 
S288	 0.535444	 0.888661	 0.000000 
Mo289	 0.439219	 0.944216	 0.500000 
Mo290	 0.535444	 0.944216	 0.500000 
S291	 0.487331	 0.971994	 1.000000 
S292	 0.487331	 0.971994	 0.000000 
S293	 0.391106	 0.971994	 1.000000 
S294	 0.391106	 0.971994	 0.000000 
Mo295	 0.920344	 0.777550	 0.500000 
S296	 0.872231	 0.805327	 1.000000 
S297	 0.872231	 0.805327	 0.000000 
Mo298	 0.776006	 0.860883	 0.500000 
Mo299	 0.391106	 0.027550	 0.500000 
S300	 0.342994	 0.055327	 1.000000 
S301	 0.342994	 0.055327	 0.000000 
S302	 0.727894	 0.888661	 1.000000 
S303	 0.727894	 0.888661	 0.000000 
Mo304	 0.631669	 0.944216	 0.500000 
Mo305	 0.246769	 0.110883	 0.500000 
S306	 0.198656	 0.138661	 1.000000 
S307	 0.198656	 0.138661	 0.000000 
S308	 0.583556	 0.971994	 1.000000 
S309	 0.583556	 0.971994	 0.000000 
Mo310	 0.102431	 0.194216	 0.500000 
S311	 0.054319	 0.221994	 1.000000 
S312	 0.054319	 0.221994	 0.000000 
#                 ---end-of-data-block---
