data_Single Layer of MoS2nx 10 ny 6 nz 1
_cell_length_a               32.423991
_cell_length_b               32.423991
_cell_length_c               3.080000
_cell_angle_alpha          90.000000
_cell_angle_beta           90.000000
_cell_angle_gamma          90.000000
_symmetry_cell_setting          Triclinic
_symmetry_space_group_name_H-M 'P 1' 
loop_
_atom_site_label
_atom_site_fract_x
_atom_site_fract_y
_atom_site_fract_z
Mo1	 0.694751	 0.010202	 0.500000 
Mo2	 0.787697	 0.035107	 0.500000 
S3	 0.734034	 0.049486	 1.000000 
S4	 0.734034	 0.049486	 0.000000 
S5	 0.641088	 0.024581	 1.000000 
S6	 0.641088	 0.024581	 0.000000 
Mo7	 0.533763	 0.053339	 0.500000 
Mo8	 0.626709	 0.078244	 0.500000 
S9	 0.573047	 0.092622	 1.000000 
S10	 0.573047	 0.092622	 0.000000 
S11	 0.480101	 0.067718	 1.000000 
S12	 0.480101	 0.067718	 0.000000 
Mo13	 0.372775	 0.096475	 0.500000 
Mo14	 0.465722	 0.121380	 0.500000 
S15	 0.412059	 0.135759	 1.000000 
S16	 0.412059	 0.135759	 0.000000 
S17	 0.319113	 0.110854	 1.000000 
S18	 0.319113	 0.110854	 0.000000 
Mo19	 0.211788	 0.139612	 0.500000 
Mo20	 0.304734	 0.164517	 0.500000 
S21	 0.251071	 0.178895	 1.000000 
S22	 0.251071	 0.178895	 0.000000 
S23	 0.158125	 0.153991	 1.000000 
S24	 0.158125	 0.153991	 0.000000 
Mo25	 0.050800	 0.182748	 0.500000 
Mo26	 0.143746	 0.207653	 0.500000 
S27	 0.090084	 0.222032	 1.000000 
S28	 0.090084	 0.222032	 0.000000 
S29	 0.826981	 0.074391	 1.000000 
S30	 0.826981	 0.074391	 0.000000 
Mo31	 0.719656	 0.103149	 0.500000 
Mo32	 0.812602	 0.128053	 0.500000 
S33	 0.758939	 0.142432	 1.000000 
S34	 0.758939	 0.142432	 0.000000 
S35	 0.665993	 0.117527	 1.000000 
S36	 0.665993	 0.117527	 0.000000 
Mo37	 0.558668	 0.146285	 0.500000 
Mo38	 0.651614	 0.171190	 0.500000 
S39	 0.597952	 0.185569	 1.000000 
S40	 0.597952	 0.185569	 0.000000 
S41	 0.505005	 0.160664	 1.000000 
S42	 0.505005	 0.160664	 0.000000 
Mo43	 0.397680	 0.189422	 0.500000 
Mo44	 0.490627	 0.214326	 0.500000 
S45	 0.436964	 0.228705	 1.000000 
S46	 0.436964	 0.228705	 0.000000 
S47	 0.344018	 0.203800	 1.000000 
S48	 0.344018	 0.203800	 0.000000 
Mo49	 0.236693	 0.232558	 0.500000 
Mo50	 0.329639	 0.257463	 0.500000 
S51	 0.275976	 0.271842	 1.000000 
S52	 0.275976	 0.271842	 0.000000 
S53	 0.183030	 0.246937	 1.000000 
S54	 0.183030	 0.246937	 0.000000 
Mo55	 0.075705	 0.275695	 0.500000 
Mo56	 0.168651	 0.300599	 0.500000 
S57	 0.114989	 0.314978	 1.000000 
S58	 0.114989	 0.314978	 0.000000 
S59	 0.022042	 0.290073	 1.000000 
S60	 0.022042	 0.290073	 0.000000 
Mo61	 0.880643	 0.060012	 0.500000 
Mo62	 0.007664	 0.343736	 0.500000 
S63	 0.851886	 0.167337	 1.000000 
S64	 0.851886	 0.167337	 0.000000 
Mo65	 0.744560	 0.196095	 0.500000 
Mo66	 0.837507	 0.221000	 0.500000 
S67	 0.783844	 0.235378	 1.000000 
S68	 0.783844	 0.235378	 0.000000 
S69	 0.690898	 0.210474	 1.000000 
S70	 0.690898	 0.210474	 0.000000 
Mo71	 0.583573	 0.239231	 0.500000 
Mo72	 0.676519	 0.264136	 0.500000 
S73	 0.622857	 0.278515	 1.000000 
S74	 0.622857	 0.278515	 0.000000 
S75	 0.529910	 0.253610	 1.000000 
S76	 0.529910	 0.253610	 0.000000 
Mo77	 0.422585	 0.282368	 0.500000 
Mo78	 0.515531	 0.307273	 0.500000 
S79	 0.461869	 0.321652	 1.000000 
S80	 0.461869	 0.321652	 0.000000 
S81	 0.368923	 0.296747	 1.000000 
S82	 0.368923	 0.296747	 0.000000 
Mo83	 0.261598	 0.325504	 0.500000 
Mo84	 0.354544	 0.350409	 0.500000 
S85	 0.300881	 0.364788	 1.000000 
S86	 0.300881	 0.364788	 0.000000 
S87	 0.207935	 0.339883	 1.000000 
S88	 0.207935	 0.339883	 0.000000 
Mo89	 0.100610	 0.368641	 0.500000 
Mo90	 0.193556	 0.393546	 0.500000 
S91	 0.139894	 0.407925	 1.000000 
S92	 0.139894	 0.407925	 0.000000 
S93	 0.046947	 0.383020	 1.000000 
S94	 0.046947	 0.383020	 0.000000 
Mo95	 0.905548	 0.152958	 0.500000 
Mo96	 0.032569	 0.436682	 0.500000 
S97	 0.876790	 0.260283	 1.000000 
S98	 0.876790	 0.260283	 0.000000 
Mo99	 0.769465	 0.289041	 0.500000 
Mo100	 0.862412	 0.313946	 0.500000 
S101	 0.808749	 0.328325	 1.000000 
S102	 0.808749	 0.328325	 0.000000 
S103	 0.715803	 0.303420	 1.000000 
S104	 0.715803	 0.303420	 0.000000 
Mo105	 0.608478	 0.332178	 0.500000 
Mo106	 0.701424	 0.357082	 0.500000 
S107	 0.647761	 0.371461	 1.000000 
S108	 0.647761	 0.371461	 0.000000 
S109	 0.554815	 0.346556	 1.000000 
S110	 0.554815	 0.346556	 0.000000 
Mo111	 0.447490	 0.375314	 0.500000 
Mo112	 0.540436	 0.400219	 0.500000 
S113	 0.486774	 0.414598	 1.000000 
S114	 0.486774	 0.414598	 0.000000 
S115	 0.393827	 0.389693	 1.000000 
S116	 0.393827	 0.389693	 0.000000 
Mo117	 0.286502	 0.418451	 0.500000 
Mo118	 0.379449	 0.443355	 0.500000 
S119	 0.325786	 0.457734	 1.000000 
S120	 0.325786	 0.457734	 0.000000 
S121	 0.232840	 0.432829	 1.000000 
S122	 0.232840	 0.432829	 0.000000 
Mo123	 0.125515	 0.461587	 0.500000 
Mo124	 0.218461	 0.486492	 0.500000 
S125	 0.164798	 0.500871	 1.000000 
S126	 0.164798	 0.500871	 0.000000 
S127	 0.071852	 0.475966	 1.000000 
S128	 0.071852	 0.475966	 0.000000 
Mo129	 0.930453	 0.245905	 0.500000 
Mo130	 0.057473	 0.529628	 0.500000 
S131	 0.003811	 0.544007	 1.000000 
S132	 0.003811	 0.544007	 0.000000 
S133	 0.901695	 0.353230	 1.000000 
S134	 0.901695	 0.353230	 0.000000 
Mo135	 0.794370	 0.381987	 0.500000 
Mo136	 0.887316	 0.406892	 0.500000 
S137	 0.833654	 0.421271	 1.000000 
S138	 0.833654	 0.421271	 0.000000 
S139	 0.740708	 0.396366	 1.000000 
S140	 0.740708	 0.396366	 0.000000 
Mo141	 0.633383	 0.425124	 0.500000 
Mo142	 0.726329	 0.450029	 0.500000 
S143	 0.672666	 0.464408	 1.000000 
S144	 0.672666	 0.464408	 0.000000 
S145	 0.579720	 0.439503	 1.000000 
S146	 0.579720	 0.439503	 0.000000 
Mo147	 0.472395	 0.468260	 0.500000 
Mo148	 0.565341	 0.493165	 0.500000 
S149	 0.511679	 0.507544	 1.000000 
S150	 0.511679	 0.507544	 0.000000 
S151	 0.418732	 0.482639	 1.000000 
S152	 0.418732	 0.482639	 0.000000 
Mo153	 0.311407	 0.511397	 0.500000 
Mo154	 0.404354	 0.536302	 0.500000 
S155	 0.350691	 0.550681	 1.000000 
S156	 0.350691	 0.550681	 0.000000 
S157	 0.257745	 0.525776	 1.000000 
S158	 0.257745	 0.525776	 0.000000 
Mo159	 0.150420	 0.554533	 0.500000 
Mo160	 0.243366	 0.579438	 0.500000 
S161	 0.189703	 0.593817	 1.000000 
S162	 0.189703	 0.593817	 0.000000 
S163	 0.096757	 0.568912	 1.000000 
S164	 0.096757	 0.568912	 0.000000 
Mo165	 0.955358	 0.338851	 0.500000 
Mo166	 0.082378	 0.622575	 0.500000 
S167	 0.028716	 0.636954	 1.000000 
S168	 0.028716	 0.636954	 0.000000 
S169	 0.926600	 0.446176	 1.000000 
S170	 0.926600	 0.446176	 0.000000 
Mo171	 0.819275	 0.474934	 0.500000 
Mo172	 0.912221	 0.499838	 0.500000 
S173	 0.858559	 0.514217	 1.000000 
S174	 0.858559	 0.514217	 0.000000 
S175	 0.765613	 0.489312	 1.000000 
S176	 0.765613	 0.489312	 0.000000 
Mo177	 0.658287	 0.518070	 0.500000 
Mo178	 0.751234	 0.542975	 0.500000 
S179	 0.697571	 0.557354	 1.000000 
S180	 0.697571	 0.557354	 0.000000 
S181	 0.604625	 0.532449	 1.000000 
S182	 0.604625	 0.532449	 0.000000 
Mo183	 0.497300	 0.561207	 0.500000 
Mo184	 0.590246	 0.586111	 0.500000 
S185	 0.536584	 0.600490	 1.000000 
S186	 0.536584	 0.600490	 0.000000 
S187	 0.443637	 0.575585	 1.000000 
S188	 0.443637	 0.575585	 0.000000 
Mo189	 0.336312	 0.604343	 0.500000 
Mo190	 0.429258	 0.629248	 0.500000 
S191	 0.375596	 0.643627	 1.000000 
S192	 0.375596	 0.643627	 0.000000 
S193	 0.282650	 0.618722	 1.000000 
S194	 0.282650	 0.618722	 0.000000 
Mo195	 0.175325	 0.647480	 0.500000 
Mo196	 0.268271	 0.672384	 0.500000 
S197	 0.214608	 0.686763	 1.000000 
S198	 0.214608	 0.686763	 0.000000 
S199	 0.121662	 0.661858	 1.000000 
S200	 0.121662	 0.661858	 0.000000 
Mo201	 0.980263	 0.431797	 0.500000 
Mo202	 0.107283	 0.715521	 0.500000 
S203	 0.053621	 0.729900	 1.000000 
S204	 0.053621	 0.729900	 0.000000 
S205	 0.951505	 0.539122	 1.000000 
S206	 0.951505	 0.539122	 0.000000 
Mo207	 0.844180	 0.567880	 0.500000 
Mo208	 0.937126	 0.592785	 0.500000 
S209	 0.883464	 0.607164	 1.000000 
S210	 0.883464	 0.607164	 0.000000 
S211	 0.790517	 0.582259	 1.000000 
S212	 0.790517	 0.582259	 0.000000 
Mo213	 0.683192	 0.611016	 0.500000 
Mo214	 0.776139	 0.635921	 0.500000 
S215	 0.722476	 0.650300	 1.000000 
S216	 0.722476	 0.650300	 0.000000 
S217	 0.629530	 0.625395	 1.000000 
S218	 0.629530	 0.625395	 0.000000 
Mo219	 0.522205	 0.654153	 0.500000 
Mo220	 0.615151	 0.679058	 0.500000 
S221	 0.561488	 0.693437	 1.000000 
S222	 0.561488	 0.693437	 0.000000 
S223	 0.468542	 0.668532	 1.000000 
S224	 0.468542	 0.668532	 0.000000 
Mo225	 0.361217	 0.697289	 0.500000 
Mo226	 0.454163	 0.722194	 0.500000 
S227	 0.400501	 0.736573	 1.000000 
S228	 0.400501	 0.736573	 0.000000 
S229	 0.307554	 0.711668	 1.000000 
S230	 0.307554	 0.711668	 0.000000 
Mo231	 0.200229	 0.740426	 0.500000 
Mo232	 0.293176	 0.765331	 0.500000 
S233	 0.239513	 0.779710	 1.000000 
S234	 0.239513	 0.779710	 0.000000 
S235	 0.146567	 0.754805	 1.000000 
S236	 0.146567	 0.754805	 0.000000 
Mo237	 0.132188	 0.808467	 0.500000 
S238	 0.078525	 0.822846	 1.000000 
S239	 0.078525	 0.822846	 0.000000 
S240	 0.976410	 0.632068	 1.000000 
S241	 0.976410	 0.632068	 0.000000 
Mo242	 0.869085	 0.660826	 0.500000 
Mo243	 0.962031	 0.685731	 0.500000 
S244	 0.908369	 0.700110	 1.000000 
S245	 0.908369	 0.700110	 0.000000 
S246	 0.815422	 0.675205	 1.000000 
S247	 0.815422	 0.675205	 0.000000 
Mo248	 0.708097	 0.703963	 0.500000 
Mo249	 0.801043	 0.728867	 0.500000 
S250	 0.747381	 0.743246	 1.000000 
S251	 0.747381	 0.743246	 0.000000 
S252	 0.654435	 0.718341	 1.000000 
S253	 0.654435	 0.718341	 0.000000 
Mo254	 0.547110	 0.747099	 0.500000 
Mo255	 0.640056	 0.772004	 0.500000 
S256	 0.586393	 0.786383	 1.000000 
S257	 0.586393	 0.786383	 0.000000 
S258	 0.493447	 0.761478	 1.000000 
S259	 0.493447	 0.761478	 0.000000 
Mo260	 0.386122	 0.790236	 0.500000 
Mo261	 0.479068	 0.815140	 0.500000 
S262	 0.425406	 0.829519	 1.000000 
S263	 0.425406	 0.829519	 0.000000 
S264	 0.332459	 0.804614	 1.000000 
S265	 0.332459	 0.804614	 0.000000 
Mo266	 0.225134	 0.833372	 0.500000 
Mo267	 0.318081	 0.858277	 0.500000 
S268	 0.264418	 0.872656	 1.000000 
S269	 0.264418	 0.872656	 0.000000 
S270	 0.171472	 0.847751	 1.000000 
S271	 0.171472	 0.847751	 0.000000 
Mo272	 0.157093	 0.901413	 0.500000 
S273	 0.103430	 0.915792	 1.000000 
S274	 0.103430	 0.915792	 0.000000 
Mo275	 0.893990	 0.753772	 0.500000 
Mo276	 0.986936	 0.778677	 0.500000 
S277	 0.933273	 0.793056	 1.000000 
S278	 0.933273	 0.793056	 0.000000 
S279	 0.840327	 0.768151	 1.000000 
S280	 0.840327	 0.768151	 0.000000 
Mo281	 0.733002	 0.796909	 0.500000 
Mo282	 0.825948	 0.821814	 0.500000 
S283	 0.772286	 0.836193	 1.000000 
S284	 0.772286	 0.836193	 0.000000 
S285	 0.679340	 0.811288	 1.000000 
S286	 0.679340	 0.811288	 0.000000 
Mo287	 0.572014	 0.840045	 0.500000 
Mo288	 0.664961	 0.864950	 0.500000 
S289	 0.611298	 0.879329	 1.000000 
S290	 0.611298	 0.879329	 0.000000 
S291	 0.518352	 0.854424	 1.000000 
S292	 0.518352	 0.854424	 0.000000 
Mo293	 0.411027	 0.883182	 0.500000 
Mo294	 0.503973	 0.908087	 0.500000 
S295	 0.450310	 0.922466	 1.000000 
S296	 0.450310	 0.922466	 0.000000 
S297	 0.357364	 0.897561	 1.000000 
S298	 0.357364	 0.897561	 0.000000 
Mo299	 0.250039	 0.926318	 0.500000 
Mo300	 0.342985	 0.951223	 0.500000 
S301	 0.289323	 0.965602	 1.000000 
S302	 0.289323	 0.965602	 0.000000 
S303	 0.196377	 0.940697	 1.000000 
S304	 0.196377	 0.940697	 0.000000 
Mo305	 0.181998	 0.994360	 0.500000 
Mo306	 0.918895	 0.846719	 0.500000 
S307	 0.865232	 0.861097	 1.000000 
S308	 0.865232	 0.861097	 0.000000 
Mo309	 0.757907	 0.889855	 0.500000 
S310	 0.704244	 0.904234	 1.000000 
S311	 0.704244	 0.904234	 0.000000 
Mo312	 0.596919	 0.932992	 0.500000 
Mo313	 0.440817	 0.028434	 0.500000 
S314	 0.387154	 0.042813	 1.000000 
S315	 0.387154	 0.042813	 0.000000 
S316	 0.543257	 0.947370	 1.000000 
S317	 0.543257	 0.947370	 0.000000 
Mo318	 0.435932	 0.976128	 0.500000 
Mo319	 0.279829	 0.071570	 0.500000 
S320	 0.226167	 0.085949	 1.000000 
S321	 0.226167	 0.085949	 0.000000 
S322	 0.382269	 0.990507	 1.000000 
S323	 0.382269	 0.990507	 0.000000 
Mo324	 0.118842	 0.114707	 0.500000 
S325	 0.065179	 0.129086	 1.000000 
S326	 0.065179	 0.129086	 0.000000 
#                 ---end-of-data-block---
