data_Single Layer of MoS2nx 10 ny 6 nz 1
_cell_length_a               32.423991
_cell_length_b               32.423991
_cell_length_c               3.080000
_cell_angle_alpha          90.000000
_cell_angle_beta           90.000000
_cell_angle_gamma          90.000000
_symmetry_cell_setting          Triclinic
_symmetry_space_group_name_H-M 'P 1' 
loop_
_atom_site_label
_atom_site_fract_x
_atom_site_fract_y
_atom_site_fract_z
Mo1	 0.747963	 0.012202	 0.500000 
S2	 0.694300	 0.026580	 1.000000 
S3	 0.694300	 0.026580	 0.000000 
S4	 0.601354	 0.001676	 1.000000 
S5	 0.601354	 0.001676	 0.000000 
Mo6	 0.494029	 0.030433	 0.500000 
Mo7	 0.586975	 0.055338	 0.500000 
S8	 0.533312	 0.069717	 1.000000 
S9	 0.533312	 0.069717	 0.000000 
S10	 0.440366	 0.044812	 1.000000 
S11	 0.440366	 0.044812	 0.000000 
Mo12	 0.333041	 0.073570	 0.500000 
Mo13	 0.425987	 0.098475	 0.500000 
S14	 0.372325	 0.112853	 1.000000 
S15	 0.372325	 0.112853	 0.000000 
S16	 0.279379	 0.087949	 1.000000 
S17	 0.279379	 0.087949	 0.000000 
Mo18	 0.172053	 0.116706	 0.500000 
Mo19	 0.265000	 0.141611	 0.500000 
S20	 0.211337	 0.155990	 1.000000 
S21	 0.211337	 0.155990	 0.000000 
S22	 0.118391	 0.131085	 1.000000 
S23	 0.118391	 0.131085	 0.000000 
Mo24	 0.011066	 0.159843	 0.500000 
Mo25	 0.104012	 0.184748	 0.500000 
S26	 0.050350	 0.199126	 1.000000 
S27	 0.050350	 0.199126	 0.000000 
S28	 0.787246	 0.051485	 1.000000 
S29	 0.787246	 0.051485	 0.000000 
Mo30	 0.679921	 0.080243	 0.500000 
Mo31	 0.772868	 0.105148	 0.500000 
S32	 0.719205	 0.119527	 1.000000 
S33	 0.719205	 0.119527	 0.000000 
S34	 0.626259	 0.094622	 1.000000 
S35	 0.626259	 0.094622	 0.000000 
Mo36	 0.518934	 0.123380	 0.500000 
Mo37	 0.611880	 0.148284	 0.500000 
S38	 0.558217	 0.162663	 1.000000 
S39	 0.558217	 0.162663	 0.000000 
S40	 0.465271	 0.137758	 1.000000 
S41	 0.465271	 0.137758	 0.000000 
Mo42	 0.357946	 0.166516	 0.500000 
Mo43	 0.450892	 0.191421	 0.500000 
S44	 0.397230	 0.205800	 1.000000 
S45	 0.397230	 0.205800	 0.000000 
S46	 0.304283	 0.180895	 1.000000 
S47	 0.304283	 0.180895	 0.000000 
Mo48	 0.196958	 0.209653	 0.500000 
Mo49	 0.289905	 0.234557	 0.500000 
S50	 0.236242	 0.248936	 1.000000 
S51	 0.236242	 0.248936	 0.000000 
S52	 0.143296	 0.224031	 1.000000 
S53	 0.143296	 0.224031	 0.000000 
Mo54	 0.035971	 0.252789	 0.500000 
Mo55	 0.128917	 0.277694	 0.500000 
S56	 0.075254	 0.292073	 1.000000 
S57	 0.075254	 0.292073	 0.000000 
Mo58	 0.840909	 0.037106	 0.500000 
S59	 0.880193	 0.076390	 1.000000 
S60	 0.880193	 0.076390	 0.000000 
S61	 0.812151	 0.144432	 1.000000 
S62	 0.812151	 0.144432	 0.000000 
Mo63	 0.704826	 0.173189	 0.500000 
Mo64	 0.797772	 0.198094	 0.500000 
S65	 0.744110	 0.212473	 1.000000 
S66	 0.744110	 0.212473	 0.000000 
S67	 0.651164	 0.187568	 1.000000 
S68	 0.651164	 0.187568	 0.000000 
Mo69	 0.543838	 0.216326	 0.500000 
Mo70	 0.636785	 0.241231	 0.500000 
S71	 0.583122	 0.255609	 1.000000 
S72	 0.583122	 0.255609	 0.000000 
S73	 0.490176	 0.230705	 1.000000 
S74	 0.490176	 0.230705	 0.000000 
Mo75	 0.382851	 0.259462	 0.500000 
Mo76	 0.475797	 0.284367	 0.500000 
S77	 0.422135	 0.298746	 1.000000 
S78	 0.422135	 0.298746	 0.000000 
S79	 0.329188	 0.273841	 1.000000 
S80	 0.329188	 0.273841	 0.000000 
Mo81	 0.221863	 0.302599	 0.500000 
Mo82	 0.314809	 0.327504	 0.500000 
S83	 0.261147	 0.341882	 1.000000 
S84	 0.261147	 0.341882	 0.000000 
S85	 0.168201	 0.316978	 1.000000 
S86	 0.168201	 0.316978	 0.000000 
Mo87	 0.060876	 0.345735	 0.500000 
Mo88	 0.153822	 0.370640	 0.500000 
S89	 0.100159	 0.385019	 1.000000 
S90	 0.100159	 0.385019	 0.000000 
S91	 0.007213	 0.360114	 1.000000 
S92	 0.007213	 0.360114	 0.000000 
Mo93	 0.865814	 0.130053	 0.500000 
S94	 0.905097	 0.169336	 1.000000 
S95	 0.905097	 0.169336	 0.000000 
S96	 0.837056	 0.237378	 1.000000 
S97	 0.837056	 0.237378	 0.000000 
Mo98	 0.729731	 0.266136	 0.500000 
Mo99	 0.822677	 0.291040	 0.500000 
S100	 0.769015	 0.305419	 1.000000 
S101	 0.769015	 0.305419	 0.000000 
S102	 0.676068	 0.280514	 1.000000 
S103	 0.676068	 0.280514	 0.000000 
Mo104	 0.568743	 0.309272	 0.500000 
Mo105	 0.661690	 0.334177	 0.500000 
S106	 0.608027	 0.348556	 1.000000 
S107	 0.608027	 0.348556	 0.000000 
S108	 0.515081	 0.323651	 1.000000 
S109	 0.515081	 0.323651	 0.000000 
Mo110	 0.407756	 0.352409	 0.500000 
Mo111	 0.500702	 0.377313	 0.500000 
S112	 0.447039	 0.391692	 1.000000 
S113	 0.447039	 0.391692	 0.000000 
S114	 0.354093	 0.366787	 1.000000 
S115	 0.354093	 0.366787	 0.000000 
Mo116	 0.246768	 0.395545	 0.500000 
Mo117	 0.339714	 0.420450	 0.500000 
S118	 0.286052	 0.434829	 1.000000 
S119	 0.286052	 0.434829	 0.000000 
S120	 0.193106	 0.409924	 1.000000 
S121	 0.193106	 0.409924	 0.000000 
Mo122	 0.085780	 0.438682	 0.500000 
Mo123	 0.178727	 0.463586	 0.500000 
S124	 0.125064	 0.477965	 1.000000 
S125	 0.125064	 0.477965	 0.000000 
S126	 0.032118	 0.453060	 1.000000 
S127	 0.032118	 0.453060	 0.000000 
Mo128	 0.890719	 0.222999	 0.500000 
Mo129	 0.017739	 0.506723	 0.500000 
S130	 0.930002	 0.262283	 1.000000 
S131	 0.930002	 0.262283	 0.000000 
S132	 0.861961	 0.330324	 1.000000 
S133	 0.861961	 0.330324	 0.000000 
Mo134	 0.754636	 0.359082	 0.500000 
Mo135	 0.847582	 0.383987	 0.500000 
S136	 0.793920	 0.398365	 1.000000 
S137	 0.793920	 0.398365	 0.000000 
S138	 0.700973	 0.373461	 1.000000 
S139	 0.700973	 0.373461	 0.000000 
Mo140	 0.593648	 0.402218	 0.500000 
Mo141	 0.686595	 0.427123	 0.500000 
S142	 0.632932	 0.441502	 1.000000 
S143	 0.632932	 0.441502	 0.000000 
S144	 0.539986	 0.416597	 1.000000 
S145	 0.539986	 0.416597	 0.000000 
Mo146	 0.432661	 0.445355	 0.500000 
Mo147	 0.525607	 0.470260	 0.500000 
S148	 0.471944	 0.484638	 1.000000 
S149	 0.471944	 0.484638	 0.000000 
S150	 0.378998	 0.459734	 1.000000 
S151	 0.378998	 0.459734	 0.000000 
Mo152	 0.271673	 0.488491	 0.500000 
Mo153	 0.364619	 0.513396	 0.500000 
S154	 0.310957	 0.527775	 1.000000 
S155	 0.310957	 0.527775	 0.000000 
S156	 0.218010	 0.502870	 1.000000 
S157	 0.218010	 0.502870	 0.000000 
Mo158	 0.110685	 0.531628	 0.500000 
Mo159	 0.203632	 0.556533	 0.500000 
S160	 0.149969	 0.570912	 1.000000 
S161	 0.149969	 0.570912	 0.000000 
S162	 0.057023	 0.546007	 1.000000 
S163	 0.057023	 0.546007	 0.000000 
Mo164	 0.915624	 0.315945	 0.500000 
Mo165	 0.042644	 0.599669	 0.500000 
S166	 0.954907	 0.355229	 1.000000 
S167	 0.954907	 0.355229	 0.000000 
S168	 0.886866	 0.423270	 1.000000 
S169	 0.886866	 0.423270	 0.000000 
Mo170	 0.779541	 0.452028	 0.500000 
Mo171	 0.872487	 0.476933	 0.500000 
S172	 0.818824	 0.491312	 1.000000 
S173	 0.818824	 0.491312	 0.000000 
S174	 0.725878	 0.466407	 1.000000 
S175	 0.725878	 0.466407	 0.000000 
Mo176	 0.618553	 0.495165	 0.500000 
Mo177	 0.711499	 0.520069	 0.500000 
S178	 0.657837	 0.534448	 1.000000 
S179	 0.657837	 0.534448	 0.000000 
S180	 0.564891	 0.509543	 1.000000 
S181	 0.564891	 0.509543	 0.000000 
Mo182	 0.457565	 0.538301	 0.500000 
Mo183	 0.550512	 0.563206	 0.500000 
S184	 0.496849	 0.577585	 1.000000 
S185	 0.496849	 0.577585	 0.000000 
S186	 0.403903	 0.552680	 1.000000 
S187	 0.403903	 0.552680	 0.000000 
Mo188	 0.296578	 0.581438	 0.500000 
Mo189	 0.389524	 0.606342	 0.500000 
S190	 0.335862	 0.620721	 1.000000 
S191	 0.335862	 0.620721	 0.000000 
S192	 0.242915	 0.595816	 1.000000 
S193	 0.242915	 0.595816	 0.000000 
Mo194	 0.135590	 0.624574	 0.500000 
Mo195	 0.228536	 0.649479	 0.500000 
S196	 0.174874	 0.663858	 1.000000 
S197	 0.174874	 0.663858	 0.000000 
S198	 0.081928	 0.638953	 1.000000 
S199	 0.081928	 0.638953	 0.000000 
Mo200	 0.940528	 0.408892	 0.500000 
Mo201	 0.067549	 0.692615	 0.500000 
S202	 0.979812	 0.448175	 1.000000 
S203	 0.979812	 0.448175	 0.000000 
S204	 0.911771	 0.516217	 1.000000 
S205	 0.911771	 0.516217	 0.000000 
Mo206	 0.804446	 0.544974	 0.500000 
Mo207	 0.897392	 0.569879	 0.500000 
S208	 0.843729	 0.584258	 1.000000 
S209	 0.843729	 0.584258	 0.000000 
S210	 0.750783	 0.559353	 1.000000 
S211	 0.750783	 0.559353	 0.000000 
Mo212	 0.643458	 0.588111	 0.500000 
Mo213	 0.736404	 0.613016	 0.500000 
S214	 0.682742	 0.627394	 1.000000 
S215	 0.682742	 0.627394	 0.000000 
S216	 0.589795	 0.602490	 1.000000 
S217	 0.589795	 0.602490	 0.000000 
Mo218	 0.482470	 0.631247	 0.500000 
Mo219	 0.575417	 0.656152	 0.500000 
S220	 0.521754	 0.670531	 1.000000 
S221	 0.521754	 0.670531	 0.000000 
S222	 0.428808	 0.645626	 1.000000 
S223	 0.428808	 0.645626	 0.000000 
Mo224	 0.321483	 0.674384	 0.500000 
Mo225	 0.414429	 0.699289	 0.500000 
S226	 0.360766	 0.713668	 1.000000 
S227	 0.360766	 0.713668	 0.000000 
S228	 0.267820	 0.688763	 1.000000 
S229	 0.267820	 0.688763	 0.000000 
Mo230	 0.160495	 0.717520	 0.500000 
Mo231	 0.253441	 0.742425	 0.500000 
S232	 0.199779	 0.756804	 1.000000 
S233	 0.199779	 0.756804	 0.000000 
S234	 0.106833	 0.731899	 1.000000 
S235	 0.106833	 0.731899	 0.000000 
Mo236	 0.965433	 0.501838	 0.500000 
Mo237	 0.092454	 0.785562	 0.500000 
S238	 0.936676	 0.609163	 1.000000 
S239	 0.936676	 0.609163	 0.000000 
Mo240	 0.829351	 0.637921	 0.500000 
Mo241	 0.922297	 0.662825	 0.500000 
S242	 0.868634	 0.677204	 1.000000 
S243	 0.868634	 0.677204	 0.000000 
S244	 0.775688	 0.652299	 1.000000 
S245	 0.775688	 0.652299	 0.000000 
Mo246	 0.668363	 0.681057	 0.500000 
Mo247	 0.761309	 0.705962	 0.500000 
S248	 0.707647	 0.720341	 1.000000 
S249	 0.707647	 0.720341	 0.000000 
S250	 0.614700	 0.695436	 1.000000 
S251	 0.614700	 0.695436	 0.000000 
Mo252	 0.507375	 0.724194	 0.500000 
Mo253	 0.600321	 0.749098	 0.500000 
S254	 0.546659	 0.763477	 1.000000 
S255	 0.546659	 0.763477	 0.000000 
S256	 0.453713	 0.738572	 1.000000 
S257	 0.453713	 0.738572	 0.000000 
Mo258	 0.346388	 0.767330	 0.500000 
Mo259	 0.439334	 0.792235	 0.500000 
S260	 0.385671	 0.806614	 1.000000 
S261	 0.385671	 0.806614	 0.000000 
S262	 0.292725	 0.781709	 1.000000 
S263	 0.292725	 0.781709	 0.000000 
Mo264	 0.185400	 0.810467	 0.500000 
Mo265	 0.278346	 0.835371	 0.500000 
S266	 0.224684	 0.849750	 1.000000 
S267	 0.224684	 0.849750	 0.000000 
S268	 0.131737	 0.824845	 1.000000 
S269	 0.131737	 0.824845	 0.000000 
Mo270	 0.990338	 0.594784	 0.500000 
Mo271	 0.117359	 0.878508	 0.500000 
S272	 0.961580	 0.702109	 1.000000 
S273	 0.961580	 0.702109	 0.000000 
Mo274	 0.854255	 0.730867	 0.500000 
Mo275	 0.947202	 0.755772	 0.500000 
S276	 0.893539	 0.770150	 1.000000 
S277	 0.893539	 0.770150	 0.000000 
S278	 0.800593	 0.745246	 1.000000 
S279	 0.800593	 0.745246	 0.000000 
Mo280	 0.693268	 0.774003	 0.500000 
Mo281	 0.786214	 0.798908	 0.500000 
S282	 0.732551	 0.813287	 1.000000 
S283	 0.732551	 0.813287	 0.000000 
S284	 0.639605	 0.788382	 1.000000 
S285	 0.639605	 0.788382	 0.000000 
Mo286	 0.532280	 0.817140	 0.500000 
Mo287	 0.625226	 0.842045	 0.500000 
S288	 0.571564	 0.856424	 1.000000 
S289	 0.571564	 0.856424	 0.000000 
S290	 0.478618	 0.831519	 1.000000 
S291	 0.478618	 0.831519	 0.000000 
Mo292	 0.371292	 0.860276	 0.500000 
Mo293	 0.464239	 0.885181	 0.500000 
S294	 0.410576	 0.899560	 1.000000 
S295	 0.410576	 0.899560	 0.000000 
S296	 0.317630	 0.874655	 1.000000 
S297	 0.317630	 0.874655	 0.000000 
Mo298	 0.210305	 0.903413	 0.500000 
Mo299	 0.303251	 0.928318	 0.500000 
S300	 0.249589	 0.942697	 1.000000 
S301	 0.249589	 0.942697	 0.000000 
S302	 0.156642	 0.917792	 1.000000 
S303	 0.156642	 0.917792	 0.000000 
Mo304	 0.142263	 0.971454	 0.500000 
S305	 0.986485	 0.795055	 1.000000 
S306	 0.986485	 0.795055	 0.000000 
Mo307	 0.879160	 0.823813	 0.500000 
Mo308	 0.972107	 0.848718	 0.500000 
S309	 0.918444	 0.863097	 1.000000 
S310	 0.918444	 0.863097	 0.000000 
S311	 0.825498	 0.838192	 1.000000 
S312	 0.825498	 0.838192	 0.000000 
Mo313	 0.718173	 0.866950	 0.500000 
Mo314	 0.811119	 0.891854	 0.500000 
S315	 0.757456	 0.906233	 1.000000 
S316	 0.757456	 0.906233	 0.000000 
S317	 0.664510	 0.881328	 1.000000 
S318	 0.664510	 0.881328	 0.000000 
Mo319	 0.557185	 0.910086	 0.500000 
Mo320	 0.650131	 0.934991	 0.500000 
S321	 0.596469	 0.949370	 1.000000 
S322	 0.596469	 0.949370	 0.000000 
S323	 0.503522	 0.924465	 1.000000 
S324	 0.503522	 0.924465	 0.000000 
Mo325	 0.396197	 0.953223	 0.500000 
Mo326	 0.489144	 0.978127	 0.500000 
S327	 0.435481	 0.992506	 1.000000 
S328	 0.435481	 0.992506	 0.000000 
S329	 0.342535	 0.967601	 1.000000 
S330	 0.342535	 0.967601	 0.000000 
Mo331	 0.235210	 0.996359	 0.500000 
#                 ---end-of-data-block---
